(PID.TID 0000.0001) 
(PID.TID 0000.0001) // ======================================================
(PID.TID 0000.0001) //                      MITgcm UV
(PID.TID 0000.0001) //                      =========
(PID.TID 0000.0001) // ======================================================
(PID.TID 0000.0001) // execution environment starting up...
(PID.TID 0000.0001) 
(PID.TID 0000.0001) // MITgcmUV version:  checkpoint64z
(PID.TID 0000.0001) // Build user:        jmc
(PID.TID 0000.0001) // Build host:        baudelaire
(PID.TID 0000.0001) // Build date:        Wed Jul 16 16:17:43 EDT 2014
(PID.TID 0000.0001) 
(PID.TID 0000.0001) // =======================================================
(PID.TID 0000.0001) // Execution Environment parameter file "eedata"
(PID.TID 0000.0001) // =======================================================
(PID.TID 0000.0001) ># Example "eedata" file
(PID.TID 0000.0001) ># Lines beginning "#" are comments
(PID.TID 0000.0001) ># nTx - No. threads per process in X
(PID.TID 0000.0001) ># nTy - No. threads per process in Y
(PID.TID 0000.0001) > &EEPARMS
(PID.TID 0000.0001) > useCubedSphereExchange=.TRUE.,
(PID.TID 0000.0001) ># unlimit the stack size for the FIZHI rad code
(PID.TID 0000.0001) >#EH3  useSETRLSTK is commented out (default: false) since, with the g77
(PID.TID 0000.0001) >#EH3  compiler, it causes the model to hang *without* returning -- thus
(PID.TID 0000.0001) >#EH3  killing all our automated g77 testing on, for instance, the ACES
(PID.TID 0000.0001) >#EH3  cluster.
(PID.TID 0000.0001) >#EH3  useSETRLSTK=.TRUE.,
(PID.TID 0000.0001) ># Activate one line below to support 2, 3 or 6 way multi-threading
(PID.TID 0000.0001) >#nTx=2,
(PID.TID 0000.0001) >#nTx=3,
(PID.TID 0000.0001) >#nTx=6,
(PID.TID 0000.0001) > /
(PID.TID 0000.0001) ># Note: Some systems use & as the
(PID.TID 0000.0001) ># namelist terminator. Other systems
(PID.TID 0000.0001) ># use a / character (as shown here).
(PID.TID 0000.0001) 
(PID.TID 0000.0001) // =======================================================
(PID.TID 0000.0001) // Computational Grid Specification ( see files "SIZE.h" )
(PID.TID 0000.0001) //                                  ( and "eedata"       )
(PID.TID 0000.0001) // =======================================================
(PID.TID 0000.0001)      nPx =    1 ; /* No. processes in X */
(PID.TID 0000.0001)      nPy =    1 ; /* No. processes in Y */
(PID.TID 0000.0001)      nSx =    6 ; /* No. tiles in X per process */
(PID.TID 0000.0001)      nSy =    1 ; /* No. tiles in Y per process */
(PID.TID 0000.0001)      sNx =   32 ; /* Tile size in X */
(PID.TID 0000.0001)      sNy =   32 ; /* Tile size in Y */
(PID.TID 0000.0001)      OLx =    2 ; /* Tile overlap distance in X */
(PID.TID 0000.0001)      OLy =    2 ; /* Tile overlap distance in Y */
(PID.TID 0000.0001)      nTx =    1 ; /* No. threads in X per process */
(PID.TID 0000.0001)      nTy =    1 ; /* No. threads in Y per process */
(PID.TID 0000.0001)       Nr =   20 ; /* No. levels in the vertical   */
(PID.TID 0000.0001)       Nx =  192 ; /* Total domain size in X ( = nPx*nSx*sNx ) */
(PID.TID 0000.0001)       Ny =   32 ; /* Total domain size in Y ( = nPy*nSy*sNy ) */
(PID.TID 0000.0001)   nTiles =    6 ; /* Total no. tiles per process ( = nSx*nSy ) */
(PID.TID 0000.0001)   nProcs =    1 ; /* Total no. processes ( = nPx*nPy ) */
(PID.TID 0000.0001) nThreads =    1 ; /* Total no. threads per process ( = nTx*nTy ) */
(PID.TID 0000.0001) usingMPI =    F ; /* Flag used to control whether MPI is in use */
(PID.TID 0000.0001)                   /*  note: To execute a program with MPI calls */
(PID.TID 0000.0001)                   /*  it must be launched appropriately e.g     */
(PID.TID 0000.0001)                   /*  "mpirun -np 64 ......"                    */
(PID.TID 0000.0001) useCoupler=    F ;/* Flag used to control communications with   */
(PID.TID 0000.0001)                   /*  other model components, through a coupler */
(PID.TID 0000.0001) debugMode =    F ; /* print debug msg. (sequence of S/R calls)  */
(PID.TID 0000.0001) printMapIncludesZeros=    F ; /* print zeros in Std.Output maps */
(PID.TID 0000.0001) maxLengthPrt1D=   65 /* maxLength of 1D array printed to StdOut */
(PID.TID 0000.0001) 
(PID.TID 0000.0001) // ======================================================
(PID.TID 0000.0001) // Mapping of tiles to threads
(PID.TID 0000.0001) // ======================================================
(PID.TID 0000.0001) // -o- Thread   1, tiles (   1:   6,   1:   1)
(PID.TID 0000.0001) 
(PID.TID 0000.0001) W2_READPARMS: file data.exch2 not found
(PID.TID 0000.0001) => use W2_EXCH2 default: regular 6-facets Cube
(PID.TID 0000.0001) W2_useE2ioLayOut=    T ;/* T: use Exch2 glob IO map; F: use model default */
(PID.TID 0000.0001) W2_mapIO        =  -1 ; /* select option for Exch2 global-IO map */
(PID.TID 0000.0001) W2_printMsg     =  -1 ; /* select option for printing information */
(PID.TID 0000.0001) ===== Start setting W2 TOPOLOGY:
(PID.TID 0000.0001)  write to log-file: w2_tile_topology.0000.log
(PID.TID 0000.0001) =====       setting W2 TOPOLOGY: Done
(PID.TID 0000.0001) 
(PID.TID 0000.0001)  INI_PARMS: opening model parameter file "data"
(PID.TID 0000.0001)  OPEN_COPY_DATA_FILE: opening file data
(PID.TID 0000.0001) // =======================================================
(PID.TID 0000.0001) // Parameter file "data"
(PID.TID 0000.0001) // =======================================================
(PID.TID 0000.0001) ># ====================
(PID.TID 0000.0001) ># | Model parameters |
(PID.TID 0000.0001) ># ====================
(PID.TID 0000.0001) >#
(PID.TID 0000.0001) ># Continuous equation parameters
(PID.TID 0000.0001) > &PARM01
(PID.TID 0000.0001) >#tRef=288.8,292.7,298.1,303.8,309.8,316.2,323.2,332.5,356.1,437.4,
(PID.TID 0000.0001) > tRef=286.0,288.0,290.0,292.0,295.0,298.0,301.0,304.0,307.0,310.0,
(PID.TID 0000.0001) >      313.0,316.0,319.5,323.0,327.5,332.0,343.0,356.0,396.0,440.0,
(PID.TID 0000.0001) >#sRef=1.0E-3,5.0E-4,1.E-4,5*1.E-6,1.E-8,1.E-9,
(PID.TID 0000.0001) > sRef=20*0.0,
(PID.TID 0000.0001) > viscAr=0.E1,
(PID.TID 0000.0001) > viscAh=0.E6,
(PID.TID 0000.0001) > viscA4=0.E17,
(PID.TID 0000.0001) > no_slip_sides=.FALSE.,
(PID.TID 0000.0001) > no_slip_bottom=.FALSE.,
(PID.TID 0000.0001) > diffKhT=0.E3,
(PID.TID 0000.0001) > diffKrT=0.,
(PID.TID 0000.0001) > diffK4T=0.E17,
(PID.TID 0000.0001) > diffKrS=0.E2,
(PID.TID 0000.0001) > diffKhS=0.E3,
(PID.TID 0000.0001) > diffK4S=0.E17,
(PID.TID 0000.0001) > buoyancyRelation='ATMOSPHERIC',
(PID.TID 0000.0001) > eosType='IDEALG',
(PID.TID 0000.0001) > atm_Rq=0.6078,
(PID.TID 0000.0001) >#Integr_GeoPot=2,
(PID.TID 0000.0001) > gravity=9.81,
(PID.TID 0000.0001) > rigidLid=.FALSE.,
(PID.TID 0000.0001) > implicitFreeSurface=.TRUE.,
(PID.TID 0000.0001) > exactConserv=.TRUE.,
(PID.TID 0000.0001) > uniformLin_PhiSurf=.FALSE.,
(PID.TID 0000.0001) > staggerTimeStep=.TRUE.,
(PID.TID 0000.0001) > readBinaryPrec=64,
(PID.TID 0000.0001) > writeBinaryPrec=64,
(PID.TID 0000.0001) > hFacMin=0.2,
(PID.TID 0000.0001) > nonlinFreeSurf=4,
(PID.TID 0000.0001) > select_rStar=2,
(PID.TID 0000.0001) > saltAdvScheme=3,
(PID.TID 0000.0001) > vectorInvariantMomentum=.TRUE.,
(PID.TID 0000.0001) >#- here are the new things:
(PID.TID 0000.0001) > useAbsVorticity=.TRUE.,
(PID.TID 0000.0001) > SadournyCoriolis=.TRUE.,
(PID.TID 0000.0001) > selectKEscheme=3,
(PID.TID 0000.0001) > /
(PID.TID 0000.0001) >
(PID.TID 0000.0001) ># Elliptic solver parameters
(PID.TID 0000.0001) > &PARM02
(PID.TID 0000.0001) > cg2dMaxIters=200,
(PID.TID 0000.0001) >#cg2dTargetResidual=1.E-12,
(PID.TID 0000.0001) > cg2dTargetResWunit=1.E-17,
(PID.TID 0000.0001) > /
(PID.TID 0000.0001) >
(PID.TID 0000.0001) ># Time stepping parameters
(PID.TID 0000.0001) > &PARM03
(PID.TID 0000.0001) > nIter0=0,
(PID.TID 0000.0001) > nTimeSteps=7,
(PID.TID 0000.0001) >#endTime=864000.0,
(PID.TID 0000.0001) > deltaT=120.0,
(PID.TID 0000.0001) > forcing_In_AB=.FALSE.,
(PID.TID 0000.0001) > abEps=0.1,
(PID.TID 0000.0001) > cAdjFreq=0.,
(PID.TID 0000.0001) > pChkptFreq=0.0,
(PID.TID 0000.0001) > ChkptFreq=0.0,
(PID.TID 0000.0001) > dumpFreq=0.0,
(PID.TID 0000.0001) > monitorFreq=1.,
(PID.TID 0000.0001) >#monitorFreq=2678400.,
(PID.TID 0000.0001) > taveFreq=0.0,
(PID.TID 0000.0001) > tave_lastiter=1.,
(PID.TID 0000.0001) ># for daily testing: to save disk space
(PID.TID 0000.0001) > writePickupAtEnd=.FALSE.,
(PID.TID 0000.0001) > /
(PID.TID 0000.0001) >
(PID.TID 0000.0001) ># Gridding parameters
(PID.TID 0000.0001) > &PARM04
(PID.TID 0000.0001) > usingCurvilinearGrid=.TRUE.,
(PID.TID 0000.0001) > horizGridFile='dxC1_dXYa',
(PID.TID 0000.0001) > radius_fromHorizGrid=6370.E3,
(PID.TID 0000.0001) > delR=20*5054.,
(PID.TID 0000.0001) > Ro_SeaLevel=101080.,
(PID.TID 0000.0001) > /
(PID.TID 0000.0001) >
(PID.TID 0000.0001) ># Input datasets
(PID.TID 0000.0001) > &PARM05
(PID.TID 0000.0001) >#topoFile='topo.cs.bin',
(PID.TID 0000.0001) > uVelInitFile='U.input.20Lev',
(PID.TID 0000.0001) > vVelInitFile='V.input.20Lev',
(PID.TID 0000.0001) > hydrogThetaFile='T.input.20Lev',
(PID.TID 0000.0001) > hydrogSaltFile='RH.input.20Lev',
(PID.TID 0000.0001) > /
(PID.TID 0000.0001) 
(PID.TID 0000.0001)  INI_PARMS ; starts to read PARM01
(PID.TID 0000.0001)  INI_PARMS ; read PARM01 : OK
(PID.TID 0000.0001)  INI_PARMS ; starts to read PARM02
(PID.TID 0000.0001)  INI_PARMS ; read PARM02 : OK
(PID.TID 0000.0001)  INI_PARMS ; starts to read PARM03
(PID.TID 0000.0001)  INI_PARMS ; read PARM03 : OK
(PID.TID 0000.0001)  INI_PARMS ; starts to read PARM04
(PID.TID 0000.0001)  INI_PARMS ; read PARM04 : OK
(PID.TID 0000.0001)  INI_PARMS ; starts to read PARM05
(PID.TID 0000.0001)  INI_PARMS ; read PARM05 : OK
(PID.TID 0000.0001)  INI_PARMS: finished reading file "data"
(PID.TID 0000.0001)  PACKAGES_BOOT: opening data.pkg
(PID.TID 0000.0001)  OPEN_COPY_DATA_FILE: opening file data.pkg
(PID.TID 0000.0001) // =======================================================
(PID.TID 0000.0001) // Parameter file "data.pkg"
(PID.TID 0000.0001) // =======================================================
(PID.TID 0000.0001) ># Packages
(PID.TID 0000.0001) > &PACKAGES
(PID.TID 0000.0001) > useFizhi=.TRUE.,
(PID.TID 0000.0001) > useGridAlt=.TRUE.,
(PID.TID 0000.0001) > useSHAP_FILT=.TRUE.,
(PID.TID 0000.0001) > useDiagnostics=.TRUE.,
(PID.TID 0000.0001) > useMNC=.TRUE.,
(PID.TID 0000.0001) > /
(PID.TID 0000.0001) 
(PID.TID 0000.0001)  PACKAGES_BOOT: finished reading data.pkg
(PID.TID 0000.0001)  PACKAGES_BOOT: On/Off package Summary
 --------  pkgs with a standard "usePKG" On/Off switch in "data.pkg":  --------
 pkg/shap_filt            compiled   and   used ( useSHAP_FILT             = T )
 pkg/fizhi                compiled   and   used ( useFizhi                 = T )
 pkg/gridalt              compiled   and   used ( useGridAlt               = T )
 pkg/diagnostics          compiled   and   used ( useDiagnostics           = T )
 pkg/mnc                  compiled   and   used ( useMNC                   = T )
 -------- pkgs without standard "usePKG" On/Off switch in "data.pkg":  --------
 pkg/generic_advdiff      compiled   and   used ( useGAD                   = T )
 pkg/mom_common           compiled   and   used ( momStepping              = T )
 pkg/mom_vecinv           compiled   and   used ( +vectorInvariantMomentum = T )
 pkg/monitor              compiled   and   used ( monitorFreq > 0.         = T )
 pkg/timeave              compiled but not used ( taveFreq > 0.            = F )
 pkg/debug                compiled but not used ( debugMode                = F )
 pkg/exch2                compiled   and   used
 pkg/rw                   compiled   and   used
 pkg/mdsio                compiled   and   used
 pkg/atm_common           compiled   ( used ? )
(PID.TID 0000.0001)  PACKAGES_BOOT: End of package Summary
(PID.TID 0000.0001) 
(PID.TID 0000.0001)  MNC_READPARMS: opening file 'data.mnc'
(PID.TID 0000.0001)  OPEN_COPY_DATA_FILE: opening file data.mnc
(PID.TID 0000.0001) // =======================================================
(PID.TID 0000.0001) // Parameter file "data.mnc"
(PID.TID 0000.0001) // =======================================================
(PID.TID 0000.0001) ># Example "data.mnc" file
(PID.TID 0000.0001) ># Lines beginning "#" are comments
(PID.TID 0000.0001) > &MNC_01
(PID.TID 0000.0001) ># mnc_echo_gvtypes=.FALSE.,
(PID.TID 0000.0001) ># mnc_use_indir=.FALSE.,
(PID.TID 0000.0001) > mnc_use_outdir=.TRUE.,
(PID.TID 0000.0001) > mnc_outdir_str='mnc_test_',
(PID.TID 0000.0001) ># mnc_outdir_date=.TRUE.,
(PID.TID 0000.0001) > monitor_mnc=.FALSE.,
(PID.TID 0000.0001) > pickup_write_mnc=.FALSE.,
(PID.TID 0000.0001) > pickup_read_mnc=.FALSE.,
(PID.TID 0000.0001) > /
(PID.TID 0000.0001) ># Note: Some systems use & as the
(PID.TID 0000.0001) ># namelist terminator. Other systems
(PID.TID 0000.0001) ># use a / character (as shown here).
(PID.TID 0000.0001) 
(PID.TID 0000.0001)  MNC_READPARMS: finished reading data.mnc
(PID.TID 0000.0001)  SHAP_FILT_READPARMS: opening data.shap
(PID.TID 0000.0001)  OPEN_COPY_DATA_FILE: opening file data.shap
(PID.TID 0000.0001) // =======================================================
(PID.TID 0000.0001) // Parameter file "data.shap"
(PID.TID 0000.0001) // =======================================================
(PID.TID 0000.0001) ># Shapiro Filter parameters
(PID.TID 0000.0001) > &SHAP_PARM01
(PID.TID 0000.0001) > shap_filt_uvStar=.FALSE.,
(PID.TID 0000.0001) > shap_filt_TrStagg=.TRUE.,
(PID.TID 0000.0001) > Shap_funct=2,
(PID.TID 0000.0001) > nShapT=4,
(PID.TID 0000.0001) > nShapUV=4,
(PID.TID 0000.0001) > nShapTrPhys=4,
(PID.TID 0000.0001) > nShapUVPhys=4,
(PID.TID 0000.0001) >#Shap_TrLength=115000.,
(PID.TID 0000.0001) >#Shap_uvLength=110000.,
(PID.TID 0000.0001) >#-- here is the new value to add:
(PID.TID 0000.0001) > Shap_uvLength=-1.,
(PID.TID 0000.0001) > Shap_Trtau=5400.,
(PID.TID 0000.0001) > Shap_uvtau=1800.,
(PID.TID 0000.0001) > /
(PID.TID 0000.0001) 
(PID.TID 0000.0001)  SHAP_FILT_READPARMS: finished reading data.shap
(PID.TID 0000.0001) Shap_funct =   /* select Shapiro filter function */
(PID.TID 0000.0001)                       2
(PID.TID 0000.0001)     ;
(PID.TID 0000.0001) nShapT =   /* power of Shapiro filter for Temperat */
(PID.TID 0000.0001)                       4
(PID.TID 0000.0001)     ;
(PID.TID 0000.0001) nShapS =   /* power of Shapiro filter for Salinity */
(PID.TID 0000.0001)                       4
(PID.TID 0000.0001)     ;
(PID.TID 0000.0001) nShapUV =   /* power of Shapiro filter for momentum */
(PID.TID 0000.0001)                       4
(PID.TID 0000.0001)     ;
(PID.TID 0000.0001) shap_filt_uvStar = /* apply filter before Press. Solver */
(PID.TID 0000.0001)                   F
(PID.TID 0000.0001)     ;
(PID.TID 0000.0001) shap_filt_TrStagg = /* filter T,S before calc PhiHyd (staggerTimeStep) */
(PID.TID 0000.0001)                   T
(PID.TID 0000.0001)     ;
(PID.TID 0000.0001) Shap_alwaysExchUV = /* always exch(U,V)    nShapUV times*/
(PID.TID 0000.0001)                   F
(PID.TID 0000.0001)     ;
(PID.TID 0000.0001) Shap_alwaysExchTr = /* always exch(Tracer) nShapTr times*/
(PID.TID 0000.0001)                   F
(PID.TID 0000.0001)     ;
(PID.TID 0000.0001) nShapTrPhys =   /* power of physical-space filter (Tracer) */
(PID.TID 0000.0001)                       4
(PID.TID 0000.0001)     ;
(PID.TID 0000.0001) nShapUVPhys =   /* power of physical-space filter (Momentum) */
(PID.TID 0000.0001)                       4
(PID.TID 0000.0001)     ;
(PID.TID 0000.0001) Shap_Trtau =   /* time scale of Shapiro filter (Tracer) */
(PID.TID 0000.0001)                 5.400000000000000E+03
(PID.TID 0000.0001)     ;
(PID.TID 0000.0001) Shap_TrLength =   /* Length scale of Shapiro filter (Tracer) */
(PID.TID 0000.0001)                 0.000000000000000E+00
(PID.TID 0000.0001)     ;
(PID.TID 0000.0001) Shap_uvtau =   /* time scale of Shapiro filter (Momentum) */
(PID.TID 0000.0001)                 1.800000000000000E+03
(PID.TID 0000.0001)     ;
(PID.TID 0000.0001) Shap_uvLength =   /* Length scale of Shapiro filter (Momentum) */
(PID.TID 0000.0001)                -1.000000000000000E+00
(PID.TID 0000.0001)     ;
(PID.TID 0000.0001) Shap_noSlip =  /* No-slip parameter (0=Free-slip ; 1=No-slip)*/
(PID.TID 0000.0001)                 0.000000000000000E+00
(PID.TID 0000.0001)     ;
(PID.TID 0000.0001) Shap_diagFreq =   /* Frequency^-1 for diagnostic output (s)*/
(PID.TID 0000.0001)                 0.000000000000000E+00
(PID.TID 0000.0001)     ;
(PID.TID 0000.0001)  FIZHI_READPARMS: opening data.fizhi
(PID.TID 0000.0001)  OPEN_COPY_DATA_FILE: opening file data.fizhi
(PID.TID 0000.0001) // =======================================================
(PID.TID 0000.0001) // Parameter file "data.fizhi"
(PID.TID 0000.0001) // =======================================================
(PID.TID 0000.0001) ># Fizhi Parameters
(PID.TID 0000.0001) > &fizhi_list
(PID.TID 0000.0001) > nhmsbegin=000000,
(PID.TID 0000.0001) > nymdbegin=20040321,
(PID.TID 0000.0001) > runlength=0.003,
(PID.TID 0000.0001) > /
(PID.TID 0000.0001) 
(PID.TID 0000.0001)  CHANGING NUMBER OF MODEL TIMESTEPS TO        15
(PID.TID 0000.0001)  CHANGING END TIME TO     1800.00
   Begin Date     20040321    Begin Time            0
 Current Date     20040321  Current Time            0
(PID.TID 0000.0001)  DIAGNOSTICS_READPARMS: opening data.diagnostics
(PID.TID 0000.0001)  OPEN_COPY_DATA_FILE: opening file data.diagnostics
(PID.TID 0000.0001) // =======================================================
(PID.TID 0000.0001) // Parameter file "data.diagnostics"
(PID.TID 0000.0001) // =======================================================
(PID.TID 0000.0001) ># Diagnostic Package Choices
(PID.TID 0000.0001) >#--------------------
(PID.TID 0000.0001) >#  dumpAtLast (logical): always write output at the end of simulation (default=F)
(PID.TID 0000.0001) >#  diag_mnc   (logical): write to NetCDF files (default=useMNC)
(PID.TID 0000.0001) >#--for each output-stream:
(PID.TID 0000.0001) >#  fileName(n) : prefix of the output file name (max 80c long) for outp.stream n
(PID.TID 0000.0001) >#  frequency(n):< 0 : write snap-shot output every |frequency| seconds
(PID.TID 0000.0001) >#               > 0 : write time-average output every frequency seconds
(PID.TID 0000.0001) >#  timePhase(n)     : write at time = timePhase + multiple of |frequency|
(PID.TID 0000.0001) >#    averagingFreq  : frequency (in s) for periodic averaging interval
(PID.TID 0000.0001) >#    averagingPhase : phase     (in s) for periodic averaging interval
(PID.TID 0000.0001) >#    repeatCycle    : number of averaging intervals in 1 cycle
(PID.TID 0000.0001) >#  levels(:,n) : list of levels to write to file (Notes: declared as REAL)
(PID.TID 0000.0001) >#                when this entry is missing, select all common levels of this list
(PID.TID 0000.0001) >#  fields(:,n) : list of selected diagnostics fields (8.c) in outp.stream n
(PID.TID 0000.0001) >#                (see "available_diagnostics.log" file for the full list of diags)
(PID.TID 0000.0001) >#  missing_value(n) : missing value for real-type fields in output file "n"
(PID.TID 0000.0001) >#  fileFlags(n)     : specific code (8c string) for output file "n"
(PID.TID 0000.0001) >#--------------------
(PID.TID 0000.0001) > &DIAGNOSTICS_LIST
(PID.TID 0000.0001) >      diag_mnc = .TRUE.,
(PID.TID 0000.0001) >    dumpAtLast = .TRUE.,
(PID.TID 0000.0001) >#--
(PID.TID 0000.0001) >  fields(1:27,1) = 'RADSWT  ','OSR     ','OLR     ','PLALBEDO','CLDFRC  ','PREACC  ',
(PID.TID 0000.0001) >                   'PRECON  ','EVAP    ','RADSWG  ','ALBNIRDF','ALBVISDF','LWGDOWN ',
(PID.TID 0000.0001) >                   'LWGUP   ','EFLUX   ','HFLUX   ','T2M     ','Q2M     ','UFLUX   ',
(PID.TID 0000.0001) >                   'VFLUX   ','U10M    ','V10M    ','PS      ','OSRCLR  ','OLRCLR  ',
(PID.TID 0000.0001) >                   'SWGCLR  ','LWGCLR  ','RSURF   ',
(PID.TID 0000.0001) >   levels(1,1) = 1.,
(PID.TID 0000.0001) >   fileName(1) = 'SHfields',
(PID.TID 0000.0001) >  frequency(1) = 00.06,
(PID.TID 0000.0001) >
(PID.TID 0000.0001) >  fields(1:8,2)  = 'UVEL    ','VVEL    ','PHIHYD  ','WVEL    ','SALT    ','RELHUM  ',
(PID.TID 0000.0001) >                   'RCENTER ','THETA   ',
(PID.TID 0000.0001) >    fileFlags(2) = ' P      ',
(PID.TID 0000.0001) >  levels(1:17,2) = 1000.E+2, 925.E+2, 850.E+2, 700.E+2, 600.E+2, 500.E+2,
(PID.TID 0000.0001) >                    400.E+2, 300.E+2, 250.E+2, 200.E+2, 150.E+2, 100.E+2,
(PID.TID 0000.0001) >                     70.E+2,  50.E+2,  30.E+2,  20.E+2,  10.E+2,
(PID.TID 0000.0001) >   fileName(2) = 'MLfields',
(PID.TID 0000.0001) >  frequency(2) = -00.06,
(PID.TID 0000.0001) >
(PID.TID 0000.0001) >  fields(1:17,3) = 'UVELSQ  ','VVELSQ  ','THETASQ ','WVELSQ  ','PHIHYDSQ','SALTSQ  ',
(PID.TID 0000.0001) >                   'UV_VEL_C','WU_VEL  ','WV_VEL  ','VVELTH  ','WVELTH  ','VVELSLT ',
(PID.TID 0000.0001) >                   'WVELSLT ','UVELSLT ','UVELTH  ','UVELPHI ','VVELPHI ',
(PID.TID 0000.0001) >    fileFlags(3) = ' P      ',
(PID.TID 0000.0001) >  levels(1:17,3) = 1000.E+2, 925.E+2, 850.E+2, 700.E+2, 600.E+2, 500.E+2,
(PID.TID 0000.0001) >                    400.E+2, 300.E+2, 250.E+2, 200.E+2, 150.E+2, 100.E+2,
(PID.TID 0000.0001) >                     70.E+2,  50.E+2,  30.E+2,  20.E+2,  10.E+2,
(PID.TID 0000.0001) >   fileName(3) = 'MFfields',
(PID.TID 0000.0001) >  frequency(3) = -00.06,
(PID.TID 0000.0001) >
(PID.TID 0000.0001) ># need to add RSURF output with same freq as other interpolated diagnostics
(PID.TID 0000.0001) >  fields(1,5)    = 'RSURF   ',
(PID.TID 0000.0001) >   fileName(5) = 'snapshot_ps',
(PID.TID 0000.0001) >  frequency(5) = -00.06,
(PID.TID 0000.0001) ># fields(1:9,4)  = 'RADSW   ','RADLW   ','TURBT   ','MOISTT  ','TURBQ   ','MOISTQ  ',
(PID.TID 0000.0001) >#                  'TURBU   ','TURBV   ','DPPHYS  ',
(PID.TID 0000.0001) ># levels(1:28,4) = 1., 2., 3., 4., 5., 6., 7., 8., 9.,10.,11.,12.,13.,14.,
(PID.TID 0000.0001) >#                 15.,16.,17.,18.,19.,20.,21.,22.,23.,24.,25.,26.,27.,28.,
(PID.TID 0000.0001) >#  fileName(4) = 'PFfields',
(PID.TID 0000.0001) ># frequency(4) = -00.06,
(PID.TID 0000.0001) > /
(PID.TID 0000.0001) >
(PID.TID 0000.0001) >#--------------------
(PID.TID 0000.0001) ># Parameter for Diagnostics of per level statistics:
(PID.TID 0000.0001) >#--------------------
(PID.TID 0000.0001) >#  diagSt_mnc (logical): write stat-diags to NetCDF files (default=diag_mnc)
(PID.TID 0000.0001) >#  diagSt_regMaskFile : file containing the region-mask to read-in
(PID.TID 0000.0001) >#  nSetRegMskFile   : number of region-mask sets within the region-mask file
(PID.TID 0000.0001) >#  set_regMask(i)   : region-mask set-index that identifies the region "i"
(PID.TID 0000.0001) >#  val_regMask(i)   : region "i" identifier value in the region mask
(PID.TID 0000.0001) >#--for each output-stream:
(PID.TID 0000.0001) >#  stat_fName(n) : prefix of the output file name (max 80c long) for outp.stream n
(PID.TID 0000.0001) >#  stat_freq(n):< 0 : write snap-shot output every |stat_freq| seconds
(PID.TID 0000.0001) >#               > 0 : write time-average output every stat_freq seconds
(PID.TID 0000.0001) >#  stat_phase(n)    : write at time = stat_phase + multiple of |stat_freq|
(PID.TID 0000.0001) >#  stat_region(:,n) : list of "regions" (default: 1 region only=global)
(PID.TID 0000.0001) >#  stat_fields(:,n) : list of selected diagnostics fields (8.c) in outp.stream n
(PID.TID 0000.0001) >#                (see "available_diagnostics.log" file for the full list of diags)
(PID.TID 0000.0001) >#--------------------
(PID.TID 0000.0001) > &DIAG_STATIS_PARMS
(PID.TID 0000.0001) > stat_fields(1:26,1) = 'RADSWT  ','OSR     ','OLR     ','PLALBEDO','CLDFRC  ','PREACC  ',
(PID.TID 0000.0001) >                       'PRECON  ','EVAP    ','RADSWG  ','ALBNIRDF','ALBVISDF','LWGDOWN ',
(PID.TID 0000.0001) >                       'LWGUP   ','EFLUX   ','HFLUX   ','T2M     ','Q2M     ','UFLUX   ',
(PID.TID 0000.0001) >                       'VFLUX   ','U10M    ','V10M    ','PS      ','OSRCLR  ','OLRCLR  ',
(PID.TID 0000.0001) >                       'SWGCLR  ','LWGCLR  ',
(PID.TID 0000.0001) >  stat_fName(1) = 'GTfields',
(PID.TID 0000.0001) >   stat_freq(1) = 1.00,
(PID.TID 0000.0001) >  stat_phase(1) = 0.,
(PID.TID 0000.0001) > /
(PID.TID 0000.0001) 
(PID.TID 0000.0001) S/R DIAGNOSTICS_READPARMS, read namelist "diagnostics_list": start
(PID.TID 0000.0001) S/R DIAGNOSTICS_READPARMS, read namelist "diagnostics_list": OK
(PID.TID 0000.0001) S/R DIAGNOSTICS_READPARMS, read namelist "DIAG_STATIS_PARMS": start
(PID.TID 0000.0001) S/R DIAGNOSTICS_READPARMS, read namelist "DIAG_STATIS_PARMS": OK
(PID.TID 0000.0001)  DIAGNOSTICS_READPARMS: global parameter summary:
(PID.TID 0000.0001)  dumpAtLast = /* always write time-ave diags at the end */
(PID.TID 0000.0001)                   T
(PID.TID 0000.0001)     ;
(PID.TID 0000.0001)  diag_mnc =   /* write NetCDF output files */
(PID.TID 0000.0001)                   T
(PID.TID 0000.0001)     ;
(PID.TID 0000.0001)  useMissingValue = /* put MissingValue where mask = 0 */
(PID.TID 0000.0001)                   F
(PID.TID 0000.0001)     ;
(PID.TID 0000.0001)  diagCG_maxIters = /* max number of iters in diag_cg2d */
(PID.TID 0000.0001)                     200
(PID.TID 0000.0001)     ;
(PID.TID 0000.0001)  diagCG_resTarget = /* residual target for diag_cg2d */
(PID.TID 0000.0001)                 1.000000000000000E-07
(PID.TID 0000.0001)     ;
(PID.TID 0000.0001) -----------------------------------------------------
(PID.TID 0000.0001)  DIAGNOSTICS_READPARMS: active diagnostics summary:
(PID.TID 0000.0001) -----------------------------------------------------
(PID.TID 0000.0001) Creating Output Stream: SHfields
(PID.TID 0000.0001) Output Frequency:          0.060000 ; Phase:           0.000000
(PID.TID 0000.0001)  Averaging Freq.:          0.060000 , Phase:           0.000000 , Cycle:   1
(PID.TID 0000.0001)  missing value:  1.000000000000E+15
(PID.TID 0000.0001)  Levels:       1.
(PID.TID 0000.0001)  Fields:    RADSWT   OSR      OLR      PLALBEDO CLDFRC   PREACC   PRECON   EVAP     RADSWG   ALBNIRDF
(PID.TID 0000.0001)  Fields:    ALBVISDF LWGDOWN  LWGUP    EFLUX    HFLUX    T2M      Q2M      UFLUX    VFLUX    U10M
(PID.TID 0000.0001)  Fields:    V10M     PS       OSRCLR   OLRCLR   SWGCLR   LWGCLR   RSURF
(PID.TID 0000.0001) Creating Output Stream: MLfields
(PID.TID 0000.0001) Output Frequency:         -0.060000 ; Phase:           0.030000
(PID.TID 0000.0001)  Averaging Freq.:          0.000000 , Phase:           0.000000 , Cycle:   1
(PID.TID 0000.0001)  missing value:  1.000000000000E+15 ; F-Flags=" P      "
(PID.TID 0000.0001)  interp:   1.000E+05 9.250E+04 8.500E+04 7.000E+04 6.000E+04 5.000E+04 4.000E+04 3.000E+04 2.500E+04 2.000E+04
(PID.TID 0000.0001)  interp:   1.500E+04 1.000E+04 7.000E+03 5.000E+03 3.000E+03 2.000E+03 1.000E+03
(PID.TID 0000.0001)  Fields:    UVEL     VVEL     PHIHYD   WVEL     SALT     RELHUM   RCENTER  THETA
(PID.TID 0000.0001) Creating Output Stream: MFfields
(PID.TID 0000.0001) Output Frequency:         -0.060000 ; Phase:           0.030000
(PID.TID 0000.0001)  Averaging Freq.:          0.000000 , Phase:           0.000000 , Cycle:   1
(PID.TID 0000.0001)  missing value:  1.000000000000E+15 ; F-Flags=" P      "
(PID.TID 0000.0001)  interp:   1.000E+05 9.250E+04 8.500E+04 7.000E+04 6.000E+04 5.000E+04 4.000E+04 3.000E+04 2.500E+04 2.000E+04
(PID.TID 0000.0001)  interp:   1.500E+04 1.000E+04 7.000E+03 5.000E+03 3.000E+03 2.000E+03 1.000E+03
(PID.TID 0000.0001)  Fields:    UVELSQ   VVELSQ   THETASQ  WVELSQ   PHIHYDSQ SALTSQ   UV_VEL_C WU_VEL   WV_VEL   VVELTH
(PID.TID 0000.0001)  Fields:    WVELTH   VVELSLT  WVELSLT  UVELSLT  UVELTH   UVELPHI  VVELPHI
(PID.TID 0000.0001) Creating Output Stream: snapshot_ps
(PID.TID 0000.0001) Output Frequency:         -0.060000 ; Phase:           0.030000
(PID.TID 0000.0001)  Averaging Freq.:          0.000000 , Phase:           0.000000 , Cycle:   1
(PID.TID 0000.0001)  missing value:  1.000000000000E+15
(PID.TID 0000.0001)  Levels:    will be set later
(PID.TID 0000.0001)  Fields:    RSURF
(PID.TID 0000.0001) -----------------------------------------------------
(PID.TID 0000.0001)  DIAGNOSTICS_READPARMS: statistics diags. summary:
(PID.TID 0000.0001) Creating Stats. Output Stream: GTfields
(PID.TID 0000.0001) Output Frequency:          1.000000 ; Phase:           0.000000
(PID.TID 0000.0001)  Regions:   0
(PID.TID 0000.0001)  Fields:    RADSWT   OSR      OLR      PLALBEDO CLDFRC   PREACC   PRECON   EVAP     RADSWG   ALBNIRDF
(PID.TID 0000.0001)  Fields:    ALBVISDF LWGDOWN  LWGUP    EFLUX    HFLUX    T2M      Q2M      UFLUX    VFLUX    U10M
(PID.TID 0000.0001)  Fields:    V10M     PS       OSRCLR   OLRCLR   SWGCLR   LWGCLR
(PID.TID 0000.0001) -----------------------------------------------------
(PID.TID 0000.0001) 
(PID.TID 0000.0001) SET_PARMS: done
(PID.TID 0000.0001) Enter INI_VERTICAL_GRID: setInterFDr=    T ; setCenterDr=    F
(PID.TID 0000.0001) tile:   1 ; Read from file dxC1_dXYa.face001.bin
(PID.TID 0000.0001)   => xC yC dxF dyF rA xG yG dxV dyU rAz dxC dyC rAw rAs dxG dyG AngleCS AngleSN
(PID.TID 0000.0001) tile:   2 ; Read from file dxC1_dXYa.face002.bin
(PID.TID 0000.0001)   => xC yC dxF dyF rA xG yG dxV dyU rAz dxC dyC rAw rAs dxG dyG AngleCS AngleSN
(PID.TID 0000.0001) tile:   3 ; Read from file dxC1_dXYa.face003.bin
(PID.TID 0000.0001)   => xC yC dxF dyF rA xG yG dxV dyU rAz dxC dyC rAw rAs dxG dyG AngleCS AngleSN
(PID.TID 0000.0001) tile:   4 ; Read from file dxC1_dXYa.face004.bin
(PID.TID 0000.0001)   => xC yC dxF dyF rA xG yG dxV dyU rAz dxC dyC rAw rAs dxG dyG AngleCS AngleSN
(PID.TID 0000.0001) tile:   5 ; Read from file dxC1_dXYa.face005.bin
(PID.TID 0000.0001)   => xC yC dxF dyF rA xG yG dxV dyU rAz dxC dyC rAw rAs dxG dyG AngleCS AngleSN
(PID.TID 0000.0001) tile:   6 ; Read from file dxC1_dXYa.face006.bin
(PID.TID 0000.0001)   => xC yC dxF dyF rA xG yG dxV dyU rAz dxC dyC rAw rAs dxG dyG AngleCS AngleSN
(PID.TID 0000.0001) %MON XC_max                       =   1.7854351589505E+02
(PID.TID 0000.0001) %MON XC_min                       =  -1.7854351589505E+02
(PID.TID 0000.0001) %MON XC_mean                      =  -4.6999441375798E-15
(PID.TID 0000.0001) %MON XC_sd                        =   1.0355545336287E+02
(PID.TID 0000.0001) %MON XG_max                       =   1.8000000000000E+02
(PID.TID 0000.0001) %MON XG_min                       =  -1.7708797161002E+02
(PID.TID 0000.0001) %MON XG_mean                      =   1.8603515625000E+00
(PID.TID 0000.0001) %MON XG_sd                        =   1.0357130300504E+02
(PID.TID 0000.0001) %MON DXC_max                      =   3.2375185836900E+05
(PID.TID 0000.0001) %MON DXC_min                      =   1.1353730006923E+05
(PID.TID 0000.0001) %MON DXC_mean                     =   2.8606102525036E+05
(PID.TID 0000.0001) %MON DXC_sd                       =   3.4020997630307E+04
(PID.TID 0000.0001) %MON DXF_max                      =   3.2369947500827E+05
(PID.TID 0000.0001) %MON DXF_min                      =   1.2020820513318E+05
(PID.TID 0000.0001) %MON DXF_mean                     =   2.8605437324820E+05
(PID.TID 0000.0001) %MON DXF_sd                       =   3.4050524252539E+04
(PID.TID 0000.0001) %MON DXG_max                      =   3.2375195872773E+05
(PID.TID 0000.0001) %MON DXG_min                      =   1.0098378008791E+05
(PID.TID 0000.0001) %MON DXG_mean                     =   2.8603818508931E+05
(PID.TID 0000.0001) %MON DXG_sd                       =   3.4140406908005E+04
(PID.TID 0000.0001) %MON DXV_max                      =   3.2380418162750E+05
(PID.TID 0000.0001) %MON DXV_min                      =   8.0152299824136E+04
(PID.TID 0000.0001) %MON DXV_mean                     =   2.8603970633619E+05
(PID.TID 0000.0001) %MON DXV_sd                       =   3.4145142117723E+04
(PID.TID 0000.0001) %MON YC_max                       =   8.7940663871962E+01
(PID.TID 0000.0001) %MON YC_min                       =  -8.7940663871962E+01
(PID.TID 0000.0001) %MON YC_mean                      =   0.0000000000000E+00
(PID.TID 0000.0001) %MON YC_sd                        =   3.8676242969072E+01
(PID.TID 0000.0001) %MON YG_max                       =   9.0000000000000E+01
(PID.TID 0000.0001) %MON YG_min                       =  -9.0000000000000E+01
(PID.TID 0000.0001) %MON YG_mean                      =  -1.1842378929335E-15
(PID.TID 0000.0001) %MON YG_sd                        =   3.8676895860710E+01
(PID.TID 0000.0001) %MON DYC_max                      =   3.2375185836900E+05
(PID.TID 0000.0001) %MON DYC_min                      =   1.1353730006923E+05
(PID.TID 0000.0001) %MON DYC_mean                     =   2.8606102525036E+05
(PID.TID 0000.0001) %MON DYC_sd                       =   3.4020997630307E+04
(PID.TID 0000.0001) %MON DYF_max                      =   3.2369947500827E+05
(PID.TID 0000.0001) %MON DYF_min                      =   1.2020820513318E+05
(PID.TID 0000.0001) %MON DYF_mean                     =   2.8605437324820E+05
(PID.TID 0000.0001) %MON DYF_sd                       =   3.4050524252539E+04
(PID.TID 0000.0001) %MON DYG_max                      =   3.2375195872773E+05
(PID.TID 0000.0001) %MON DYG_min                      =   1.0098378008791E+05
(PID.TID 0000.0001) %MON DYG_mean                     =   2.8603818508931E+05
(PID.TID 0000.0001) %MON DYG_sd                       =   3.4140406908005E+04
(PID.TID 0000.0001) %MON DYU_max                      =   3.2380418162750E+05
(PID.TID 0000.0001) %MON DYU_min                      =   8.0152299824136E+04
(PID.TID 0000.0001) %MON DYU_mean                     =   2.8603970633619E+05
(PID.TID 0000.0001) %MON DYU_sd                       =   3.4145142117723E+04
(PID.TID 0000.0001) %MON RA_max                       =   1.0474757731659E+11
(PID.TID 0000.0001) %MON RA_min                       =   1.5497867056722E+10
(PID.TID 0000.0001) %MON RA_mean                      =   8.2985711332657E+10
(PID.TID 0000.0001) %MON RA_sd                        =   1.7448591913787E+10
(PID.TID 0000.0001) %MON RAW_max                      =   1.0481529828871E+11
(PID.TID 0000.0001) %MON RAW_min                      =   1.1465425741966E+10
(PID.TID 0000.0001) %MON RAW_mean                     =   8.2985711332657E+10
(PID.TID 0000.0001) %MON RAW_sd                       =   1.7503889570793E+10
(PID.TID 0000.0001) %MON RAS_max                      =   1.0481529828871E+11
(PID.TID 0000.0001) %MON RAS_min                      =   1.1465425741966E+10
(PID.TID 0000.0001) %MON RAS_mean                     =   8.2985711332657E+10
(PID.TID 0000.0001) %MON RAS_sd                       =   1.7503889570793E+10
(PID.TID 0000.0001) %MON RAZ_max                      =   1.0484349334619E+11
(PID.TID 0000.0001) %MON RAZ_min                      =   8.8317900612505E+09
(PID.TID 0000.0001) %MON RAZ_mean                     =   8.2992246709235E+10
(PID.TID 0000.0001) %MON RAZ_sd                       =   1.7482297311044E+10
(PID.TID 0000.0001) %MON AngleCS_max                  =   9.9999994756719E-01
(PID.TID 0000.0001) %MON AngleCS_min                  =  -9.9968286884824E-01
(PID.TID 0000.0001) %MON AngleCS_mean                 =   3.3078922539000E-01
(PID.TID 0000.0001) %MON AngleCS_sd                   =   6.2496278958502E-01
(PID.TID 0000.0001) %MON AngleSN_max                  =   9.9968286884824E-01
(PID.TID 0000.0001) %MON AngleSN_min                  =  -9.9999994756719E-01
(PID.TID 0000.0001) %MON AngleSN_mean                 =  -3.3078922539000E-01
(PID.TID 0000.0001) %MON AngleSN_sd                   =   6.2496278958502E-01
(PID.TID 0000.0001) 
(PID.TID 0000.0001) SET_REF_STATE: PhiRef/g [m] at level Center (integer)
(PID.TID 0000.0001)                      and at level Interface (half-int.) :
(PID.TID 0000.0001)  K=  0.5  ;  r=       101080.0  ;  phiRef/g=        0.000
(PID.TID 0000.0001)  K=  1.0  ;  r=        98553.0  ;  phiRef/g=      211.618
(PID.TID 0000.0001)  K=  1.5  ;  r=        96026.0  ;  phiRef/g=      429.193
(PID.TID 0000.0001)  K=  2.0  ;  r=        93499.0  ;  phiRef/g=      646.767
(PID.TID 0000.0001)  K=  2.5  ;  r=        90972.0  ;  phiRef/g=      872.913
(PID.TID 0000.0001)  K=  3.0  ;  r=        88445.0  ;  phiRef/g=     1099.058
(PID.TID 0000.0001)  K=  3.5  ;  r=        85918.0  ;  phiRef/g=     1334.632
(PID.TID 0000.0001)  K=  4.0  ;  r=        83391.0  ;  phiRef/g=     1570.206
(PID.TID 0000.0001)  K=  4.5  ;  r=        80864.0  ;  phiRef/g=     1816.211
(PID.TID 0000.0001)  K=  5.0  ;  r=        78337.0  ;  phiRef/g=     2062.216
(PID.TID 0000.0001)  K=  5.5  ;  r=        75810.0  ;  phiRef/g=     2319.834
(PID.TID 0000.0001)  K=  6.0  ;  r=        73283.0  ;  phiRef/g=     2577.452
(PID.TID 0000.0001)  K=  6.5  ;  r=        70756.0  ;  phiRef/g=     2848.093
(PID.TID 0000.0001)  K=  7.0  ;  r=        68229.0  ;  phiRef/g=     3118.733
(PID.TID 0000.0001)  K=  7.5  ;  r=        65702.0  ;  phiRef/g=     3404.098
(PID.TID 0000.0001)  K=  8.0  ;  r=        63175.0  ;  phiRef/g=     3689.462
(PID.TID 0000.0001)  K=  8.5  ;  r=        60648.0  ;  phiRef/g=     3991.634
(PID.TID 0000.0001)  K=  9.0  ;  r=        58121.0  ;  phiRef/g=     4293.805
(PID.TID 0000.0001)  K=  9.5  ;  r=        55594.0  ;  phiRef/g=     4615.374
(PID.TID 0000.0001)  K= 10.0  ;  r=        53067.0  ;  phiRef/g=     4936.943
(PID.TID 0000.0001)  K= 10.5  ;  r=        50540.0  ;  phiRef/g=     5281.197
(PID.TID 0000.0001)  K= 11.0  ;  r=        48013.0  ;  phiRef/g=     5625.450
(PID.TID 0000.0001)  K= 11.5  ;  r=        45486.0  ;  phiRef/g=     5996.656
(PID.TID 0000.0001)  K= 12.0  ;  r=        42959.0  ;  phiRef/g=     6367.862
(PID.TID 0000.0001)  K= 12.5  ;  r=        40432.0  ;  phiRef/g=     6771.717
(PID.TID 0000.0001)  K= 13.0  ;  r=        37905.0  ;  phiRef/g=     7175.572
(PID.TID 0000.0001)  K= 13.5  ;  r=        35378.0  ;  phiRef/g=     7619.952
(PID.TID 0000.0001)  K= 14.0  ;  r=        32851.0  ;  phiRef/g=     8064.332
(PID.TID 0000.0001)  K= 14.5  ;  r=        30324.0  ;  phiRef/g=     8560.624
(PID.TID 0000.0001)  K= 15.0  ;  r=        27797.0  ;  phiRef/g=     9056.917
(PID.TID 0000.0001)  K= 15.5  ;  r=        25270.0  ;  phiRef/g=     9622.593
(PID.TID 0000.0001)  K= 16.0  ;  r=        22743.0  ;  phiRef/g=    10188.270
(PID.TID 0000.0001)  K= 16.5  ;  r=        20216.0  ;  phiRef/g=    10852.462
(PID.TID 0000.0001)  K= 17.0  ;  r=        17689.0  ;  phiRef/g=    11516.654
(PID.TID 0000.0001)  K= 17.5  ;  r=        15162.0  ;  phiRef/g=    12334.425
(PID.TID 0000.0001)  K= 18.0  ;  r=        12635.0  ;  phiRef/g=    13152.196
(PID.TID 0000.0001)  K= 18.5  ;  r=        10108.0  ;  phiRef/g=    14252.735
(PID.TID 0000.0001)  K= 19.0  ;  r=         7581.0  ;  phiRef/g=    15353.274
(PID.TID 0000.0001)  K= 19.5  ;  r=         5054.0  ;  phiRef/g=    17240.049
(PID.TID 0000.0001)  K= 20.0  ;  r=         2527.0  ;  phiRef/g=    19126.825
(PID.TID 0000.0001)  K= 20.5  ;  r=            0.0  ;  phiRef/g=    29360.515
(PID.TID 0000.0001) // =======================================================
(PID.TID 0000.0001) // Field Model R_low (ini_masks_etc)
(PID.TID 0000.0001) // CMIN =          1.000000000000000E+32
(PID.TID 0000.0001) // CMAX =         -1.000000000000000E+32
(PID.TID 0000.0001) // CINT =          0.000000000000000E+00
(PID.TID 0000.0001) // SYMBOLS (CMIN->CMAX): -abcdefghijklmnopqrstuvwxyz+
(PID.TID 0000.0001) //                  0.0: .
(PID.TID 0000.0001) // RANGE I (Lo:Hi:Step):(    -1:   194:     1)
(PID.TID 0000.0001) // RANGE J (Lo:Hi:Step):(    34:    -1:    -1)
(PID.TID 0000.0001) // RANGE K (Lo:Hi:Step):(   1:   1:   1)
(PID.TID 0000.0001) // =======================================================
(PID.TID 0000.0001) // =======================================================
(PID.TID 0000.0001) // END OF FIELD                                          =
(PID.TID 0000.0001) // =======================================================
(PID.TID 0000.0001) 
(PID.TID 0000.0001) // =======================================================
(PID.TID 0000.0001) // Field Model Ro_surf (ini_masks_etc)
(PID.TID 0000.0001) // CMIN =          1.010800000000000E+05
(PID.TID 0000.0001) // CMAX =          1.010800000000000E+05
(PID.TID 0000.0001) // CINT =          0.000000000000000E+00
(PID.TID 0000.0001) // SYMBOLS (CMIN->CMAX): -abcdefghijklmnopqrstuvwxyz+
(PID.TID 0000.0001) //                  0.0: .
(PID.TID 0000.0001) // RANGE I (Lo:Hi:Step):(    -1:   194:     1)
(PID.TID 0000.0001) // RANGE J (Lo:Hi:Step):(    34:    -1:    -1)
(PID.TID 0000.0001) // RANGE K (Lo:Hi:Step):(   1:   1:   1)
(PID.TID 0000.0001) // =======================================================
(PID.TID 0000.0001) // =======================================================
(PID.TID 0000.0001) // END OF FIELD                                          =
(PID.TID 0000.0001) // =======================================================
(PID.TID 0000.0001) 
(PID.TID 0000.0001) // =======================================================
(PID.TID 0000.0001) // Field hFacC at iteration          0
(PID.TID 0000.0001) // CMIN =          1.000000000000000E+00
(PID.TID 0000.0001) // CMAX =          1.000000000000000E+00
(PID.TID 0000.0001) // CINT =          0.000000000000000E+00
(PID.TID 0000.0001) // SYMBOLS (CMIN->CMAX): -abcdefghijklmnopqrstuvwxyz+
(PID.TID 0000.0001) //                  0.0: .
(PID.TID 0000.0001) // RANGE I (Lo:Hi:Step):(    -1:   194:     1)
(PID.TID 0000.0001) // RANGE J (Lo:Hi:Step):(    34:    -1:    -1)
(PID.TID 0000.0001) // RANGE K (Lo:Hi:Step):(   1:   1:   1)
(PID.TID 0000.0001) // =======================================================
(PID.TID 0000.0001) // =======================================================
(PID.TID 0000.0001) // END OF FIELD                                          =
(PID.TID 0000.0001) // =======================================================
(PID.TID 0000.0001) 
(PID.TID 0000.0001) // =======================================================
(PID.TID 0000.0001) // Field hFacW at iteration          0
(PID.TID 0000.0001) // CMIN =          1.000000000000000E+00
(PID.TID 0000.0001) // CMAX =          1.000000000000000E+00
(PID.TID 0000.0001) // CINT =          0.000000000000000E+00
(PID.TID 0000.0001) // SYMBOLS (CMIN->CMAX): -abcdefghijklmnopqrstuvwxyz+
(PID.TID 0000.0001) //                  0.0: .
(PID.TID 0000.0001) // RANGE I (Lo:Hi:Step):(    -1:   194:     1)
(PID.TID 0000.0001) // RANGE J (Lo:Hi:Step):(    34:    -1:    -1)
(PID.TID 0000.0001) // RANGE K (Lo:Hi:Step):(   1:   1:   1)
(PID.TID 0000.0001) // =======================================================
(PID.TID 0000.0001) // =======================================================
(PID.TID 0000.0001) // END OF FIELD                                          =
(PID.TID 0000.0001) // =======================================================
(PID.TID 0000.0001) 
(PID.TID 0000.0001) // =======================================================
(PID.TID 0000.0001) // Field hFacS at iteration          0
(PID.TID 0000.0001) // CMIN =          1.000000000000000E+00
(PID.TID 0000.0001) // CMAX =          1.000000000000000E+00
(PID.TID 0000.0001) // CINT =          0.000000000000000E+00
(PID.TID 0000.0001) // SYMBOLS (CMIN->CMAX): -abcdefghijklmnopqrstuvwxyz+
(PID.TID 0000.0001) //                  0.0: .
(PID.TID 0000.0001) // RANGE I (Lo:Hi:Step):(    -1:   194:     1)
(PID.TID 0000.0001) // RANGE J (Lo:Hi:Step):(    34:    -1:    -1)
(PID.TID 0000.0001) // RANGE K (Lo:Hi:Step):(   1:   1:   1)
(PID.TID 0000.0001) // =======================================================
(PID.TID 0000.0001) // =======================================================
(PID.TID 0000.0001) // END OF FIELD                                          =
(PID.TID 0000.0001) // =======================================================
(PID.TID 0000.0001) 
(PID.TID 0000.0001) GAD_INIT_FIXED: GAD_OlMinSize=  2  0  1
(PID.TID 0000.0001) 
(PID.TID 0000.0001) // ===================================
(PID.TID 0000.0001) // GAD parameters :
(PID.TID 0000.0001) // ===================================
(PID.TID 0000.0001) tempAdvScheme =   /* Temp. Horiz.Advection scheme selector */
(PID.TID 0000.0001)                       2
(PID.TID 0000.0001)     ;
(PID.TID 0000.0001) tempVertAdvScheme =   /* Temp. Vert. Advection scheme selector */
(PID.TID 0000.0001)                       2
(PID.TID 0000.0001)     ;
(PID.TID 0000.0001) tempMultiDimAdvec =   /* use Muti-Dim Advec method for Temp */
(PID.TID 0000.0001)                   F
(PID.TID 0000.0001)     ;
(PID.TID 0000.0001) tempSOM_Advection = /* use 2nd Order Moment Advection for Temp */
(PID.TID 0000.0001)                   F
(PID.TID 0000.0001)     ;
(PID.TID 0000.0001) AdamsBashforthGt = /* apply Adams-Bashforth extrapolation on Gt */
(PID.TID 0000.0001)                   T
(PID.TID 0000.0001)     ;
(PID.TID 0000.0001) AdamsBashforth_T = /* apply Adams-Bashforth extrapolation on Temp */
(PID.TID 0000.0001)                   F
(PID.TID 0000.0001)     ;
(PID.TID 0000.0001) saltAdvScheme =   /* Salt. Horiz.advection scheme selector */
(PID.TID 0000.0001)                       3
(PID.TID 0000.0001)     ;
(PID.TID 0000.0001) saltVertAdvScheme =   /* Salt. Vert. Advection scheme selector */
(PID.TID 0000.0001)                       3
(PID.TID 0000.0001)     ;
(PID.TID 0000.0001) saltMultiDimAdvec =   /* use Muti-Dim Advec method for Salt */
(PID.TID 0000.0001)                   F
(PID.TID 0000.0001)     ;
(PID.TID 0000.0001) saltSOM_Advection = /* use 2nd Order Moment Advection for Salt */
(PID.TID 0000.0001)                   F
(PID.TID 0000.0001)     ;
(PID.TID 0000.0001) AdamsBashforthGs = /* apply Adams-Bashforth extrapolation on Gs */
(PID.TID 0000.0001)                   T
(PID.TID 0000.0001)     ;
(PID.TID 0000.0001) AdamsBashforth_S = /* apply Adams-Bashforth extrapolation on Salt */
(PID.TID 0000.0001)                   F
(PID.TID 0000.0001)     ;
(PID.TID 0000.0001) // ===================================
  Set Alarm for: 20040321  000000, with frequency:       3000, and Tag: radsw
  Set Alarm for: 20040321  000000, with frequency:       3000, and Tag: radlw
  Set Alarm for: 20040321  000000, with frequency:        400, and Tag: turb
  Set Alarm for: 20040321  000000, with frequency:       1000, and Tag: moist
  Set Alarm for: 20040321  000000, with frequency:          0, and Tag: pnt
 FIZHI_INIT_VEG: defining surface type and fraction: ----------------------
 FIZHI_INIT_VEG: setting surface Tiles:
  bi=   1, bj=   1, # of Land Tiles=         0, Total # of Tiles=      2048
  bi=   2, bj=   1, # of Land Tiles=         0, Total # of Tiles=      2048
  bi=   3, bj=   1, # of Land Tiles=         0, Total # of Tiles=      2048
  bi=   4, bj=   1, # of Land Tiles=         0, Total # of Tiles=      2048
  bi=   5, bj=   1, # of Land Tiles=         0, Total # of Tiles=      2048
  bi=   6, bj=   1, # of Land Tiles=         0, Total # of Tiles=      2048
 FIZHI_INIT_VEG: done
(PID.TID 0000.0001) ------------------------------------------------------------
(PID.TID 0000.0001) DIAGNOSTICS_SET_LEVELS: done
(PID.TID 0000.0001)  Total Nb of available Diagnostics: ndiagt=   401
(PID.TID 0000.0001)  write list of available Diagnostics to file: available_diagnostics.log
(PID.TID 0000.0001) SETDIAG: Allocate  1 x  1 Levels for Diagnostic #   225 RADSWT
(PID.TID 0000.0001) SETDIAG: Allocate  1 x  1 Levels for Diagnostic #   248 OSR
(PID.TID 0000.0001) SETDIAG: Allocate  1 x  1 Levels for Diagnostic #   214 OLR
(PID.TID 0000.0001) SETDIAG: Allocate  1 x  1 Levels for Diagnostic #   387 PLALBEDO
(PID.TID 0000.0001) SETDIAG: Allocate  1 x  1 Levels for Diagnostic #   278 CLDFRC
(PID.TID 0000.0001) SETDIAG: Allocate  1 x  1 Levels for Diagnostic #   198 PREACC
(PID.TID 0000.0001) SETDIAG: Allocate  1 x  1 Levels for Diagnostic #   199 PRECON
(PID.TID 0000.0001) SETDIAG: Allocate  1 x  1 Levels for Diagnostic #   229 EVAP
(PID.TID 0000.0001) SETDIAG: Allocate  1 x  1 Levels for Diagnostic #   182 RADSWG
(PID.TID 0000.0001) SETDIAG: Allocate  1 x  1 Levels for Diagnostic #   358 ALBNIRDF
(PID.TID 0000.0001) SETDIAG: Allocate  1 x  1 Levels for Diagnostic #   356 ALBVISDF
(PID.TID 0000.0001) SETDIAG: Allocate  1 x  1 Levels for Diagnostic #   223 LWGDOWN
(PID.TID 0000.0001) SETDIAG: Allocate  1 x  1 Levels for Diagnostic #   213 LWGUP
(PID.TID 0000.0001) SETDIAG: Allocate  1 x  1 Levels for Diagnostic #   177 EFLUX
(PID.TID 0000.0001) SETDIAG: Allocate  1 x  1 Levels for Diagnostic #   176 HFLUX
(PID.TID 0000.0001) SETDIAG: Allocate  1 x  1 Levels for Diagnostic #   282 T2M
(PID.TID 0000.0001) SETDIAG: Allocate  1 x  1 Levels for Diagnostic #   283 Q2M
(PID.TID 0000.0001) SETDIAG: Allocate  1 x  1 Levels for Diagnostic #   178 UFLUX
(PID.TID 0000.0001) SETDIAG: Allocate  1 x  1 Levels for Diagnostic #   179 VFLUX
(PID.TID 0000.0001) SETDIAG: Allocate  1 x  1 Levels for Diagnostic #   284 U10M
(PID.TID 0000.0001) SETDIAG: Allocate  1 x  1 Levels for Diagnostic #   285 V10M
(PID.TID 0000.0001) SETDIAG: Allocate  1 x  1 Levels for Diagnostic #   256 PS
(PID.TID 0000.0001) SETDIAG: Allocate  1 x  1 Levels for Diagnostic #   249 OSRCLR
(PID.TID 0000.0001) SETDIAG: Allocate  1 x  1 Levels for Diagnostic #   215 OLRCLR
(PID.TID 0000.0001) SETDIAG: Allocate  1 x  1 Levels for Diagnostic #   259 SWGCLR
(PID.TID 0000.0001) SETDIAG: Allocate  1 x  1 Levels for Diagnostic #   216 LWGCLR
(PID.TID 0000.0001) SETDIAG: Allocate  1 x  1 Levels for Diagnostic #    93 RSURF
(PID.TID 0000.0001) SETDIAG: Allocate 20 x  1 Levels for Diagnostic #    29 UVEL
(PID.TID 0000.0001) SETDIAG: Allocate 20 x  1 Levels for Diagnostic #    30 VVEL
(PID.TID 0000.0001) SETDIAG: Allocate 20 x  1 Levels for Diagnostic #    69 PHIHYD
(PID.TID 0000.0001) SETDIAG: Allocate 20 x  1 Levels for Diagnostic #    31 WVEL
(PID.TID 0000.0001) SETDIAG: Allocate 20 x  1 Levels for Diagnostic #    27 SALT
(PID.TID 0000.0001) SETDIAG: Allocate 20 x  1 Levels for Diagnostic #    28 RELHUM
(PID.TID 0000.0001) SETDIAG: Allocate 20 x  1 Levels for Diagnostic #    92 RCENTER
(PID.TID 0000.0001) SETDIAG: Allocate 20 x  1 Levels for Diagnostic #    26 THETA
(PID.TID 0000.0001) SETDIAG: Allocate 20 x  1 Levels for Diagnostic #    34 UVELSQ
(PID.TID 0000.0001) SETDIAG: Allocate 20 x  1 Levels for Diagnostic #    35 VVELSQ
(PID.TID 0000.0001) SETDIAG: Allocate 20 x  1 Levels for Diagnostic #    32 THETASQ
(PID.TID 0000.0001) SETDIAG: Allocate 20 x  1 Levels for Diagnostic #    36 WVELSQ
(PID.TID 0000.0001) SETDIAG: Allocate 20 x  1 Levels for Diagnostic #    70 PHIHYDSQ
(PID.TID 0000.0001) SETDIAG: Allocate 20 x  1 Levels for Diagnostic #    33 SALTSQ
(PID.TID 0000.0001) SETDIAG: Allocate 20 x  1 Levels for Diagnostic #    39 UV_VEL_C
(PID.TID 0000.0001) SETDIAG: Allocate 20 x  1 Levels for Diagnostic #    41 WU_VEL
(PID.TID 0000.0001) SETDIAG: Allocate 20 x  1 Levels for Diagnostic #    42 WV_VEL
(PID.TID 0000.0001) SETDIAG: Allocate 20 x  1 Levels for Diagnostic #    55 VVELTH
(PID.TID 0000.0001) SETDIAG: Allocate 20 x  1 Levels for Diagnostic #    56 WVELTH
(PID.TID 0000.0001) SETDIAG: Allocate 20 x  1 Levels for Diagnostic #    58 VVELSLT
(PID.TID 0000.0001) SETDIAG: Allocate 20 x  1 Levels for Diagnostic #    59 WVELSLT
(PID.TID 0000.0001) SETDIAG: Allocate 20 x  1 Levels for Diagnostic #    57 UVELSLT
(PID.TID 0000.0001) SETDIAG: Allocate 20 x  1 Levels for Diagnostic #    54 UVELTH
(PID.TID 0000.0001) SETDIAG: Allocate 20 x  1 Levels for Diagnostic #    60 UVELPHI
(PID.TID 0000.0001) SETDIAG: Allocate 20 x  1 Levels for Diagnostic #    61 VVELPHI
(PID.TID 0000.0001) SETDIAG: Allocate  1 x  1 Levels for Diagnostic #    93 RSURF
(PID.TID 0000.0001)   space allocated for all diagnostics:     528 levels
(PID.TID 0000.0001)   set mate pointer for diag #   178  UFLUX    , Parms: UM      L1 , mate:   179
(PID.TID 0000.0001)   set mate pointer for diag #   179  VFLUX    , Parms: VM      L1 , mate:   178
(PID.TID 0000.0001)   set mate pointer for diag #   284  U10M     , Parms: UM      M1 , mate:   285
(PID.TID 0000.0001)   set mate pointer for diag #   285  V10M     , Parms: VM      M1 , mate:   284
(PID.TID 0000.0001)   set mate pointer for diag #    29  UVEL     , Parms: UUR     MR , mate:    30
(PID.TID 0000.0001)   set mate pointer for diag #    30  VVEL     , Parms: VVR     MR , mate:    29
(PID.TID 0000.0001)   set mate pointer for diag #    34  UVELSQ   , Parms: UURP    MR , mate:    35
(PID.TID 0000.0001)   set mate pointer for diag #    35  VVELSQ   , Parms: VVRP    MR , mate:    34
(PID.TID 0000.0001)   set mate pointer for diag #    39  UV_VEL_C , Parms: UMR     MR , mate:    39
(PID.TID 0000.0001)   set mate pointer for diag #    55  VVELTH   , Parms: VVR     MR , mate:    54
(PID.TID 0000.0001)   set mate pointer for diag #    58  VVELSLT  , Parms: VVR     MR , mate:    57
(PID.TID 0000.0001)   set mate pointer for diag #    57  UVELSLT  , Parms: UUR     MR , mate:    58
(PID.TID 0000.0001)   set mate pointer for diag #    54  UVELTH   , Parms: UUR     MR , mate:    55
(PID.TID 0000.0001)   set mate pointer for diag #    60  UVELPHI  , Parms: UUr     MR , mate:    61
(PID.TID 0000.0001)   set mate pointer for diag #    61  VVELPHI  , Parms: VVr     MR , mate:    60
(PID.TID 0000.0001) DIAGNOSTICS_SET_POINTERS: Set levels for Outp.Stream: snapshot_ps
(PID.TID 0000.0001)  Levels:       1.
(PID.TID 0000.0001) DIAGNOSTICS_SET_POINTERS: done
(PID.TID 0000.0001) ------------------------------------------------------------
(PID.TID 0000.0001) DIAGSTATS_SET_REGIONS: define no region
(PID.TID 0000.0001) ------------------------------------------------------------
(PID.TID 0000.0001) SETDIAG: Allocate  1 Levels for Stats-Diag #   225 RADSWT
(PID.TID 0000.0001) SETDIAG: Allocate  1 Levels for Stats-Diag #   248 OSR
(PID.TID 0000.0001) SETDIAG: Allocate  1 Levels for Stats-Diag #   214 OLR
(PID.TID 0000.0001) SETDIAG: Allocate  1 Levels for Stats-Diag #   387 PLALBEDO
(PID.TID 0000.0001) SETDIAG: Allocate  1 Levels for Stats-Diag #   278 CLDFRC
(PID.TID 0000.0001) SETDIAG: Allocate  1 Levels for Stats-Diag #   198 PREACC
(PID.TID 0000.0001) SETDIAG: Allocate  1 Levels for Stats-Diag #   199 PRECON
(PID.TID 0000.0001) SETDIAG: Allocate  1 Levels for Stats-Diag #   229 EVAP
(PID.TID 0000.0001) SETDIAG: Allocate  1 Levels for Stats-Diag #   182 RADSWG
(PID.TID 0000.0001) SETDIAG: Allocate  1 Levels for Stats-Diag #   358 ALBNIRDF
(PID.TID 0000.0001) SETDIAG: Allocate  1 Levels for Stats-Diag #   356 ALBVISDF
(PID.TID 0000.0001) SETDIAG: Allocate  1 Levels for Stats-Diag #   223 LWGDOWN
(PID.TID 0000.0001) SETDIAG: Allocate  1 Levels for Stats-Diag #   213 LWGUP
(PID.TID 0000.0001) SETDIAG: Allocate  1 Levels for Stats-Diag #   177 EFLUX
(PID.TID 0000.0001) SETDIAG: Allocate  1 Levels for Stats-Diag #   176 HFLUX
(PID.TID 0000.0001) SETDIAG: Allocate  1 Levels for Stats-Diag #   282 T2M
(PID.TID 0000.0001) SETDIAG: Allocate  1 Levels for Stats-Diag #   283 Q2M
(PID.TID 0000.0001) SETDIAG: Allocate  1 Levels for Stats-Diag #   178 UFLUX
(PID.TID 0000.0001) SETDIAG: Allocate  1 Levels for Stats-Diag #   179 VFLUX
(PID.TID 0000.0001) SETDIAG: Allocate  1 Levels for Stats-Diag #   284 U10M
(PID.TID 0000.0001) SETDIAG: Allocate  1 Levels for Stats-Diag #   285 V10M
(PID.TID 0000.0001) SETDIAG: Allocate  1 Levels for Stats-Diag #   256 PS
(PID.TID 0000.0001) SETDIAG: Allocate  1 Levels for Stats-Diag #   249 OSRCLR
(PID.TID 0000.0001) SETDIAG: Allocate  1 Levels for Stats-Diag #   215 OLRCLR
(PID.TID 0000.0001) SETDIAG: Allocate  1 Levels for Stats-Diag #   259 SWGCLR
(PID.TID 0000.0001) SETDIAG: Allocate  1 Levels for Stats-Diag #   216 LWGCLR
(PID.TID 0000.0001)   space allocated for all stats-diags:      26 levels
(PID.TID 0000.0001) DIAGSTATS_SET_POINTERS: done
(PID.TID 0000.0001) ------------------------------------------------------------
  Set Alarm for: 20040321  000000, with frequency:      60000, and Tag: diagtag01
  Set Alarm for: 20040321  000000, with frequency:      60000, and Tag: diagtag02
  Set Alarm for: 20040321  000000, with frequency:      60000, and Tag: diagtag03
  Set Alarm for: 20040321  000000, with frequency:      60000, and Tag: diagtag04
  Set Alarm for: 20040321  000000, with frequency:    1000000, and Tag: diagStg01
(PID.TID 0000.0001) INI_GLOBAL_DOMAIN: Found  24 CS-corner Pts in the domain
(PID.TID 0000.0001) %MON fCori_max                    =   1.4574827780704E-04
(PID.TID 0000.0001) %MON fCori_min                    =  -1.4574827780704E-04
(PID.TID 0000.0001) %MON fCori_mean                   =   0.0000000000000E+00
(PID.TID 0000.0001) %MON fCori_sd                     =   8.4202189509968E-05
(PID.TID 0000.0001) %MON fCoriG_max                   =   1.4584247033981E-04
(PID.TID 0000.0001) %MON fCoriG_min                   =  -1.4584247033981E-04
(PID.TID 0000.0001) %MON fCoriG_mean                  =   2.2587545260115E-21
(PID.TID 0000.0001) %MON fCoriG_sd                    =   8.4202189509968E-05
(PID.TID 0000.0001) %MON fCoriCos_max                 =   1.4580166994612E-04
(PID.TID 0000.0001) %MON fCoriCos_min                 =   5.2407700865903E-06
(PID.TID 0000.0001) %MON fCoriCos_mean                =   1.1514045869113E-04
(PID.TID 0000.0001) %MON fCoriCos_sd                  =   3.0375849106513E-05
(PID.TID 0000.0001) INI_CG2D: CG2D normalisation factor =  9.8060549904498893E-06
(PID.TID 0000.0001) INI_CG2D: cg2dTolerance = 4.166463737598143E-10 (Area=5.0986421043E+14)
(PID.TID 0000.0001) 
(PID.TID 0000.0001) // =======================================================
(PID.TID 0000.0001) // Model configuration
(PID.TID 0000.0001) // =======================================================
(PID.TID 0000.0001) //
(PID.TID 0000.0001) // "Physical" paramters ( PARM01 in namelist )
(PID.TID 0000.0001) //
(PID.TID 0000.0001) buoyancyRelation = /* Type of relation to get Buoyancy */
(PID.TID 0000.0001)               'ATMOSPHERIC'
(PID.TID 0000.0001)     ;
(PID.TID 0000.0001) fluidIsAir   =  /* fluid major constituent is Air */
(PID.TID 0000.0001)                   T
(PID.TID 0000.0001)     ;
(PID.TID 0000.0001) fluidIsWater =  /* fluid major constituent is Water */
(PID.TID 0000.0001)                   F
(PID.TID 0000.0001)     ;
(PID.TID 0000.0001) usingPCoords =  /* use p (or p*) vertical coordinate */
(PID.TID 0000.0001)                   T
(PID.TID 0000.0001)     ;
(PID.TID 0000.0001) usingZCoords =  /* use z (or z*) vertical coordinate */
(PID.TID 0000.0001)                   F
(PID.TID 0000.0001)     ;
(PID.TID 0000.0001) tRef =   /* Reference temperature profile ( oC or K ) */
(PID.TID 0000.0001)                 2.860000000000000E+02,      /* K =  1 */
(PID.TID 0000.0001)                 2.880000000000000E+02,      /* K =  2 */
(PID.TID 0000.0001)                 2.900000000000000E+02,      /* K =  3 */
(PID.TID 0000.0001)                 2.920000000000000E+02,      /* K =  4 */
(PID.TID 0000.0001)                 2.950000000000000E+02,      /* K =  5 */
(PID.TID 0000.0001)                 2.980000000000000E+02,      /* K =  6 */
(PID.TID 0000.0001)                 3.010000000000000E+02,      /* K =  7 */
(PID.TID 0000.0001)                 3.040000000000000E+02,      /* K =  8 */
(PID.TID 0000.0001)                 3.070000000000000E+02,      /* K =  9 */
(PID.TID 0000.0001)                 3.100000000000000E+02,      /* K = 10 */
(PID.TID 0000.0001)                 3.130000000000000E+02,      /* K = 11 */
(PID.TID 0000.0001)                 3.160000000000000E+02,      /* K = 12 */
(PID.TID 0000.0001)                 3.195000000000000E+02,      /* K = 13 */
(PID.TID 0000.0001)                 3.230000000000000E+02,      /* K = 14 */
(PID.TID 0000.0001)                 3.275000000000000E+02,      /* K = 15 */
(PID.TID 0000.0001)                 3.320000000000000E+02,      /* K = 16 */
(PID.TID 0000.0001)                 3.430000000000000E+02,      /* K = 17 */
(PID.TID 0000.0001)                 3.560000000000000E+02,      /* K = 18 */
(PID.TID 0000.0001)                 3.960000000000000E+02,      /* K = 19 */
(PID.TID 0000.0001)                 4.400000000000000E+02       /* K = 20 */
(PID.TID 0000.0001)     ;
(PID.TID 0000.0001) sRef =   /* Reference salinity profile ( psu ) */
(PID.TID 0000.0001)    20 @  0.000000000000000E+00              /* K =  1: 20 */
(PID.TID 0000.0001)     ;
(PID.TID 0000.0001) useStrainTensionVisc= /* Use StrainTension Form of Viscous Operator */
(PID.TID 0000.0001)                   F
(PID.TID 0000.0001)     ;
(PID.TID 0000.0001) useVariableVisc = /* Use variable horizontal viscosity */
(PID.TID 0000.0001)                   F
(PID.TID 0000.0001)     ;
(PID.TID 0000.0001) useHarmonicVisc = /* Use harmonic horizontal viscosity */
(PID.TID 0000.0001)                   F
(PID.TID 0000.0001)     ;
(PID.TID 0000.0001) useBiharmonicVisc= /* Use biharmonic horiz.  viscosity */
(PID.TID 0000.0001)                   F
(PID.TID 0000.0001)     ;
(PID.TID 0000.0001) useSmag3D = /* Use isotropic 3-D Smagorinsky viscosity */
(PID.TID 0000.0001)                   F
(PID.TID 0000.0001)     ;
(PID.TID 0000.0001) viscAh  =   /* Lateral harmonic viscosity ( m^2/s ) */
(PID.TID 0000.0001)                 0.000000000000000E+00
(PID.TID 0000.0001)     ;
(PID.TID 0000.0001) viscA4  =   /* Lateral biharmonic viscosity ( m^4/s ) */
(PID.TID 0000.0001)                 0.000000000000000E+00
(PID.TID 0000.0001)     ;
(PID.TID 0000.0001) no_slip_sides =  /* Viscous BCs: No-slip sides */
(PID.TID 0000.0001)                   F
(PID.TID 0000.0001)     ;
(PID.TID 0000.0001) sideDragFactor = /* side-drag scaling factor (non-dim) */
(PID.TID 0000.0001)                 2.000000000000000E+00
(PID.TID 0000.0001)     ;
(PID.TID 0000.0001) viscArNr = /* vertical profile of vertical viscosity (Pa^2/s )*/
(PID.TID 0000.0001)    20 @  0.000000000000000E+00              /* K =  1: 20 */
(PID.TID 0000.0001)     ;
(PID.TID 0000.0001) no_slip_bottom =  /* Viscous BCs: No-slip bottom */
(PID.TID 0000.0001)                   F
(PID.TID 0000.0001)     ;
(PID.TID 0000.0001) bottomDragLinear = /* linear bottom-drag coefficient ( m/s ) */
(PID.TID 0000.0001)                 0.000000000000000E+00
(PID.TID 0000.0001)     ;
(PID.TID 0000.0001) bottomDragQuadratic = /* quadratic bottom-drag coefficient (-) */
(PID.TID 0000.0001)                 0.000000000000000E+00
(PID.TID 0000.0001)     ;
(PID.TID 0000.0001) diffKhT =   /* Laplacian diffusion of heat laterally ( m^2/s ) */
(PID.TID 0000.0001)                 0.000000000000000E+00
(PID.TID 0000.0001)     ;
(PID.TID 0000.0001) diffK4T =   /* Biharmonic diffusion of heat laterally ( m^4/s ) */
(PID.TID 0000.0001)                 0.000000000000000E+00
(PID.TID 0000.0001)     ;
(PID.TID 0000.0001) diffKhS =   /* Laplacian diffusion of salt laterally ( m^2/s ) */
(PID.TID 0000.0001)                 0.000000000000000E+00
(PID.TID 0000.0001)     ;
(PID.TID 0000.0001) diffK4S =   /* Biharmonic diffusion of salt laterally ( m^4/s ) */
(PID.TID 0000.0001)                 0.000000000000000E+00
(PID.TID 0000.0001)     ;
(PID.TID 0000.0001) diffKrNrT = /* vertical profile of vertical diffusion of Temp (Pa^2/s )*/
(PID.TID 0000.0001)    20 @  0.000000000000000E+00              /* K =  1: 20 */
(PID.TID 0000.0001)     ;
(PID.TID 0000.0001) diffKrNrS = /* vertical profile of vertical diffusion of Salt (Pa^2/s )*/
(PID.TID 0000.0001)    20 @  0.000000000000000E+00              /* K =  1: 20 */
(PID.TID 0000.0001)     ;
(PID.TID 0000.0001) diffKrBL79surf = /* Surface diffusion for Bryan and Lewis 79 ( m^2/s ) */
(PID.TID 0000.0001)                 0.000000000000000E+00
(PID.TID 0000.0001)     ;
(PID.TID 0000.0001) diffKrBL79deep = /* Deep diffusion for Bryan and Lewis 1979 ( m^2/s ) */
(PID.TID 0000.0001)                 0.000000000000000E+00
(PID.TID 0000.0001)     ;
(PID.TID 0000.0001) diffKrBL79scl = /* Depth scale for Bryan and Lewis 1979 ( m ) */
(PID.TID 0000.0001)                 2.000000000000000E+02
(PID.TID 0000.0001)     ;
(PID.TID 0000.0001) diffKrBL79Ho = /* Turning depth for Bryan and Lewis 1979 ( m ) */
(PID.TID 0000.0001)                -2.000000000000000E+03
(PID.TID 0000.0001)     ;
(PID.TID 0000.0001) ivdc_kappa = /* Implicit Vertical Diffusivity for Convection (Pa^2/s) */
(PID.TID 0000.0001)                 0.000000000000000E+00
(PID.TID 0000.0001)     ;
(PID.TID 0000.0001) hMixCriteria=  /* Criteria for mixed-layer diagnostic */
(PID.TID 0000.0001)                -8.000000000000000E-01
(PID.TID 0000.0001)     ;
(PID.TID 0000.0001) dRhoSmall =  /* Parameter for mixed-layer diagnostic */
(PID.TID 0000.0001)                 1.000000000000000E-06
(PID.TID 0000.0001)     ;
(PID.TID 0000.0001) hMixSmooth=  /* Smoothing parameter for mixed-layer diagnostic */
(PID.TID 0000.0001)                 0.000000000000000E+00
(PID.TID 0000.0001)     ;
(PID.TID 0000.0001) eosType =  /* Type of Equation of State */
(PID.TID 0000.0001)               'IDEALG'
(PID.TID 0000.0001)     ;
(PID.TID 0000.0001) celsius2K = /* 0 degree Celsius converted to Kelvin ( K ) */
(PID.TID 0000.0001)                 2.731500000000000E+02
(PID.TID 0000.0001)     ;
(PID.TID 0000.0001) atm_Rd =    /* gas constant for dry air ( J/kg/K ) */
(PID.TID 0000.0001)                 2.868571428571428E+02
(PID.TID 0000.0001)     ;
(PID.TID 0000.0001) atm_Cp =    /* specific heat (Cp) of dry air ( J/kg/K ) */
(PID.TID 0000.0001)                 1.004000000000000E+03
(PID.TID 0000.0001)     ;
(PID.TID 0000.0001) atm_kappa = /* kappa (=Rd/Cp ) of dry air */
(PID.TID 0000.0001)                 2.857142857142857E-01
(PID.TID 0000.0001)     ;
(PID.TID 0000.0001) atm_Rq =  /* water vap. specific vol. anomaly relative to dry air */
(PID.TID 0000.0001)                 6.078000000000000E-01
(PID.TID 0000.0001)     ;
(PID.TID 0000.0001) atm_Po =    /* standard reference pressure ( Pa ) */
(PID.TID 0000.0001)                 1.000000000000000E+05
(PID.TID 0000.0001)     ;
(PID.TID 0000.0001) thetaConst= /* constant reference for potential temperature ( K ) */
(PID.TID 0000.0001)                 2.860000000000000E+02
(PID.TID 0000.0001)     ;
(PID.TID 0000.0001) integr_GeoPot =  /* select how the geopotential is integrated */
(PID.TID 0000.0001)                       2
(PID.TID 0000.0001)     ;
(PID.TID 0000.0001) selectFindRoSurf=  /* select how Surf.Ref. pressure is defined */
(PID.TID 0000.0001)                       0
(PID.TID 0000.0001)     ;
(PID.TID 0000.0001) rhoConst  = /* Reference density (Boussinesq)  ( kg/m^3 ) */
(PID.TID 0000.0001)                 9.998000000000000E+02
(PID.TID 0000.0001)     ;
(PID.TID 0000.0001) rhoFacC = /* normalized Reference density @ cell-Center (-) */
(PID.TID 0000.0001)    20 @  1.000000000000000E+00              /* K =  1: 20 */
(PID.TID 0000.0001)     ;
(PID.TID 0000.0001) rhoFacF = /* normalized Reference density @ W-Interface (-) */
(PID.TID 0000.0001)    21 @  1.000000000000000E+00              /* K =  1: 21 */
(PID.TID 0000.0001)     ;
(PID.TID 0000.0001) rhoConstFresh = /* Fresh-water reference density ( kg/m^3 ) */
(PID.TID 0000.0001)                 9.998000000000000E+02
(PID.TID 0000.0001)     ;
(PID.TID 0000.0001) gravity =   /* Gravitational acceleration ( m/s^2 ) */
(PID.TID 0000.0001)                 9.810000000000000E+00
(PID.TID 0000.0001)     ;
(PID.TID 0000.0001) gBaro =   /* Barotropic gravity ( m/s^2 ) */
(PID.TID 0000.0001)                 9.810000000000000E+00
(PID.TID 0000.0001)     ;
(PID.TID 0000.0001) rotationPeriod =   /* Rotation Period ( s ) */
(PID.TID 0000.0001)                 8.616400000000000E+04
(PID.TID 0000.0001)     ;
(PID.TID 0000.0001) omega =   /* Angular velocity ( rad/s ) */
(PID.TID 0000.0001)                 7.292123516990375E-05
(PID.TID 0000.0001)     ;
(PID.TID 0000.0001) f0 =   /* Reference coriolis parameter ( 1/s ) */
(PID.TID 0000.0001)                 1.000000000000000E-04
(PID.TID 0000.0001)     ;
(PID.TID 0000.0001) beta =   /* Beta ( 1/(m.s) ) */
(PID.TID 0000.0001)                 9.999999999999999E-12
(PID.TID 0000.0001)     ;
(PID.TID 0000.0001) fPrime =   /* Second coriolis parameter ( 1/s ) */
(PID.TID 0000.0001)                 0.000000000000000E+00
(PID.TID 0000.0001)     ;
(PID.TID 0000.0001) rigidLid =   /* Rigid lid on/off flag */
(PID.TID 0000.0001)                   F
(PID.TID 0000.0001)     ;
(PID.TID 0000.0001) implicitFreeSurface =   /* Implicit free surface on/off flag */
(PID.TID 0000.0001)                   T
(PID.TID 0000.0001)     ;
(PID.TID 0000.0001) freeSurfFac =   /* Implicit free surface factor */
(PID.TID 0000.0001)                 1.000000000000000E+00
(PID.TID 0000.0001)     ;
(PID.TID 0000.0001) implicSurfPress =  /* Surface Pressure implicit factor (0-1)*/
(PID.TID 0000.0001)                 1.000000000000000E+00
(PID.TID 0000.0001)     ;
(PID.TID 0000.0001) implicDiv2Dflow =  /* Barot. Flow Div. implicit factor (0-1)*/
(PID.TID 0000.0001)                 1.000000000000000E+00
(PID.TID 0000.0001)     ;
(PID.TID 0000.0001) uniformLin_PhiSurf = /* use uniform Bo_surf on/off flag*/
(PID.TID 0000.0001)                   F
(PID.TID 0000.0001)     ;
(PID.TID 0000.0001) uniformFreeSurfLev = /* free-surface level-index is uniform */
(PID.TID 0000.0001)                   F
(PID.TID 0000.0001)     ;
(PID.TID 0000.0001) hFacMin =   /* minimum partial cell factor (hFac) */
(PID.TID 0000.0001)                 2.000000000000000E-01
(PID.TID 0000.0001)     ;
(PID.TID 0000.0001) hFacMinDr = /* minimum partial cell thickness (Pa) */
(PID.TID 0000.0001)                 0.000000000000000E+00
(PID.TID 0000.0001)     ;
(PID.TID 0000.0001) exactConserv =  /* Exact Volume Conservation on/off flag*/
(PID.TID 0000.0001)                   T
(PID.TID 0000.0001)     ;
(PID.TID 0000.0001) linFSConserveTr = /* Tracer correction for Lin Free Surface on/off flag*/
(PID.TID 0000.0001)                   F
(PID.TID 0000.0001)     ;
(PID.TID 0000.0001) nonlinFreeSurf = /* Non-linear Free Surf. options (-1,0,1,2,3)*/
(PID.TID 0000.0001)                       4
(PID.TID 0000.0001)      -1,0= Off ; 1,2,3= On, 2=+rescale gU,gV, 3=+update cg2d solv.
(PID.TID 0000.0001)     ;
(PID.TID 0000.0001) hFacInf =   /* lower threshold for hFac (nonlinFreeSurf only)*/
(PID.TID 0000.0001)                 2.000000000000000E-01
(PID.TID 0000.0001)     ;
(PID.TID 0000.0001) hFacSup =   /* upper threshold for hFac (nonlinFreeSurf only)*/
(PID.TID 0000.0001)                 2.000000000000000E+00
(PID.TID 0000.0001)     ;
(PID.TID 0000.0001) select_rStar = /* r* Vertical coord. options (=0 r coord.; >0 uses r*)*/
(PID.TID 0000.0001)                       2
(PID.TID 0000.0001)     ;
(PID.TID 0000.0001) useRealFreshWaterFlux = /* Real Fresh Water Flux on/off flag*/
(PID.TID 0000.0001)                   F
(PID.TID 0000.0001)     ;
(PID.TID 0000.0001) temp_EvPrRn = /* Temp. of Evap/Prec/R (UNSET=use local T)(oC)*/
(PID.TID 0000.0001)                 1.234567000000000E+05
(PID.TID 0000.0001)     ;
(PID.TID 0000.0001) salt_EvPrRn = /* Salin. of Evap/Prec/R (UNSET=use local S)(psu)*/
(PID.TID 0000.0001)                 0.000000000000000E+00
(PID.TID 0000.0001)     ;
(PID.TID 0000.0001) selectAddFluid = /* option for mass source/sink of fluid (=0: off) */
(PID.TID 0000.0001)                       0
(PID.TID 0000.0001)     ;
(PID.TID 0000.0001) temp_addMass = /* Temp. of addMass array (UNSET=use local T)(oC)*/
(PID.TID 0000.0001)                 1.234567000000000E+05
(PID.TID 0000.0001)     ;
(PID.TID 0000.0001) salt_addMass = /* Salin. of addMass array (UNSET=use local S)(psu)*/
(PID.TID 0000.0001)                 0.000000000000000E+00
(PID.TID 0000.0001)     ;
(PID.TID 0000.0001) convertFW2Salt = /* convert F.W. Flux to Salt Flux (-1=use local S)(psu)*/
(PID.TID 0000.0001)                 3.500000000000000E+01
(PID.TID 0000.0001)     ;
(PID.TID 0000.0001) use3Dsolver = /* use 3-D pressure solver on/off flag */
(PID.TID 0000.0001)                   F
(PID.TID 0000.0001)     ;
(PID.TID 0000.0001) nonHydrostatic =  /* Non-Hydrostatic on/off flag */
(PID.TID 0000.0001)                   F
(PID.TID 0000.0001)     ;
(PID.TID 0000.0001) nh_Am2 = /* Non-Hydrostatic terms scaling factor */
(PID.TID 0000.0001)                 1.000000000000000E+00
(PID.TID 0000.0001)     ;
(PID.TID 0000.0001) implicitNHPress = /* Non-Hyd Pressure implicit factor (0-1)*/
(PID.TID 0000.0001)                 1.000000000000000E+00
(PID.TID 0000.0001)     ;
(PID.TID 0000.0001) selectNHfreeSurf = /* Non-Hyd (free-)Surface option */
(PID.TID 0000.0001)                       0
(PID.TID 0000.0001)     ;
(PID.TID 0000.0001) quasiHydrostatic = /* Quasi-Hydrostatic on/off flag */
(PID.TID 0000.0001)                   F
(PID.TID 0000.0001)     ;
(PID.TID 0000.0001) calc_wVelocity = /* vertical velocity calculation on/off flag */
(PID.TID 0000.0001)                   T
(PID.TID 0000.0001)     ;
(PID.TID 0000.0001) momStepping =  /* Momentum equation on/off flag */
(PID.TID 0000.0001)                   T
(PID.TID 0000.0001)     ;
(PID.TID 0000.0001) vectorInvariantMomentum= /* Vector-Invariant Momentum on/off */
(PID.TID 0000.0001)                   T
(PID.TID 0000.0001)     ;
(PID.TID 0000.0001) momAdvection =  /* Momentum advection on/off flag */
(PID.TID 0000.0001)                   T
(PID.TID 0000.0001)     ;
(PID.TID 0000.0001) momViscosity =  /* Momentum viscosity on/off flag */
(PID.TID 0000.0001)                   T
(PID.TID 0000.0001)     ;
(PID.TID 0000.0001) momImplVertAdv= /* Momentum implicit vert. advection on/off*/
(PID.TID 0000.0001)                   F
(PID.TID 0000.0001)     ;
(PID.TID 0000.0001) implicitViscosity = /* Implicit viscosity on/off flag */
(PID.TID 0000.0001)                   F
(PID.TID 0000.0001)     ;
(PID.TID 0000.0001) metricTerms =  /* metric-Terms on/off flag */
(PID.TID 0000.0001)                   F
(PID.TID 0000.0001)     ;
(PID.TID 0000.0001) useNHMTerms = /* Non-Hydrostatic Metric-Terms on/off */
(PID.TID 0000.0001)                   F
(PID.TID 0000.0001)     ;
(PID.TID 0000.0001) selectCoriMap = /* Coriolis Map options (0,1,2,3)*/
(PID.TID 0000.0001)                       2
(PID.TID 0000.0001)     0= f-Plane ; 1= Beta-Plane ; 2= Spherical ; 3= read from file
(PID.TID 0000.0001)     ;
(PID.TID 0000.0001) use3dCoriolis = /* 3-D Coriolis on/off flag */
(PID.TID 0000.0001)                   F
(PID.TID 0000.0001)     ;
(PID.TID 0000.0001) useCoriolis =  /* Coriolis on/off flag */
(PID.TID 0000.0001)                   T
(PID.TID 0000.0001)     ;
(PID.TID 0000.0001) useCDscheme =  /* CD scheme on/off flag */
(PID.TID 0000.0001)                   F
(PID.TID 0000.0001)     ;
(PID.TID 0000.0001) useEnergyConservingCoriolis= /* Flx-Form Coriolis scheme flag */
(PID.TID 0000.0001)                   F
(PID.TID 0000.0001)     ;
(PID.TID 0000.0001) useJamartWetPoints= /* Coriolis WetPoints method flag */
(PID.TID 0000.0001)                   F
(PID.TID 0000.0001)     ;
(PID.TID 0000.0001) useJamartMomAdv= /* V.I Non-linear terms Jamart flag */
(PID.TID 0000.0001)                   F
(PID.TID 0000.0001)     ;
(PID.TID 0000.0001) useAbsVorticity= /* V.I Works with f+zeta in Coriolis */
(PID.TID 0000.0001)                   T
(PID.TID 0000.0001)     ;
(PID.TID 0000.0001) selectVortScheme= /* V.I Scheme selector for Vorticity-Term */
(PID.TID 0000.0001)                       2
(PID.TID 0000.0001)    = 0 : enstrophy (Shallow-Water Eq.) conserving scheme by Sadourny, JAS 75
(PID.TID 0000.0001)    = 1 : same as 0 with modified hFac
(PID.TID 0000.0001)    = 2 : energy conserving scheme (used by Sadourny in JAS 75 paper)
(PID.TID 0000.0001)    = 3 : energy (general) and enstrophy (2D, nonDiv.) conserving scheme
(PID.TID 0000.0001)          from Sadourny (Burridge & Haseler, ECMWF Rep.4, 1977)
(PID.TID 0000.0001)     ;
(PID.TID 0000.0001) upwindVorticity= /* V.I Upwind bias vorticity flag */
(PID.TID 0000.0001)                   F
(PID.TID 0000.0001)     ;
(PID.TID 0000.0001) highOrderVorticity= /* V.I High order vort. advect. flag */
(PID.TID 0000.0001)                   F
(PID.TID 0000.0001)     ;
(PID.TID 0000.0001) upwindShear= /* V.I Upwind vertical Shear advection flag */
(PID.TID 0000.0001)                   F
(PID.TID 0000.0001)     ;
(PID.TID 0000.0001) selectKEscheme= /* V.I Kinetic Energy scheme selector */
(PID.TID 0000.0001)                       3
(PID.TID 0000.0001)     ;
(PID.TID 0000.0001) momForcing =  /* Momentum forcing on/off flag */
(PID.TID 0000.0001)                   T
(PID.TID 0000.0001)     ;
(PID.TID 0000.0001) momPressureForcing =  /* Momentum pressure term on/off flag */
(PID.TID 0000.0001)                   T
(PID.TID 0000.0001)     ;
(PID.TID 0000.0001) implicitIntGravWave= /* Implicit Internal Gravity Wave flag */
(PID.TID 0000.0001)                   F
(PID.TID 0000.0001)     ;
(PID.TID 0000.0001) staggerTimeStep =    /* Stagger time stepping on/off flag */
(PID.TID 0000.0001)                   T
(PID.TID 0000.0001)     ;
(PID.TID 0000.0001) doResetHFactors = /* reset thickness factors @ each time-step */
(PID.TID 0000.0001)                   F
(PID.TID 0000.0001)     ;
(PID.TID 0000.0001) multiDimAdvection =  /* enable/disable Multi-Dim Advection */
(PID.TID 0000.0001)                   T
(PID.TID 0000.0001)     ;
(PID.TID 0000.0001) useMultiDimAdvec =   /* Multi-Dim Advection is/is-not used */
(PID.TID 0000.0001)                   F
(PID.TID 0000.0001)     ;
(PID.TID 0000.0001) implicitDiffusion = /* Implicit Diffusion on/off flag */
(PID.TID 0000.0001)                   F
(PID.TID 0000.0001)     ;
(PID.TID 0000.0001) tempStepping =  /* Temperature equation on/off flag */
(PID.TID 0000.0001)                   T
(PID.TID 0000.0001)     ;
(PID.TID 0000.0001) tempAdvection = /* Temperature advection on/off flag */
(PID.TID 0000.0001)                   T
(PID.TID 0000.0001)     ;
(PID.TID 0000.0001) tempImplVertAdv = /* Temp. implicit vert. advection on/off */
(PID.TID 0000.0001)                   F
(PID.TID 0000.0001)     ;
(PID.TID 0000.0001) tempForcing  =  /* Temperature forcing on/off flag */
(PID.TID 0000.0001)                   T
(PID.TID 0000.0001)     ;
(PID.TID 0000.0001) doThetaClimRelax = /* apply SST relaxation on/off flag */
(PID.TID 0000.0001)                   F
(PID.TID 0000.0001)     ;
(PID.TID 0000.0001) tempIsActiveTr = /* Temp. is a dynamically Active Tracer */
(PID.TID 0000.0001)                   T
(PID.TID 0000.0001)     ;
(PID.TID 0000.0001) saltStepping =  /* Salinity equation on/off flag */
(PID.TID 0000.0001)                   T
(PID.TID 0000.0001)     ;
(PID.TID 0000.0001) saltAdvection = /* Salinity advection on/off flag */
(PID.TID 0000.0001)                   T
(PID.TID 0000.0001)     ;
(PID.TID 0000.0001) saltImplVertAdv = /* Sali. implicit vert. advection on/off */
(PID.TID 0000.0001)                   F
(PID.TID 0000.0001)     ;
(PID.TID 0000.0001) saltForcing  =  /* Salinity forcing on/off flag */
(PID.TID 0000.0001)                   T
(PID.TID 0000.0001)     ;
(PID.TID 0000.0001) doSaltClimRelax = /* apply SSS relaxation on/off flag */
(PID.TID 0000.0001)                   F
(PID.TID 0000.0001)     ;
(PID.TID 0000.0001) saltIsActiveTr = /* Salt  is a dynamically Active Tracer */
(PID.TID 0000.0001)                   T
(PID.TID 0000.0001)     ;
(PID.TID 0000.0001)  readBinaryPrec = /* Precision used for reading binary files */
(PID.TID 0000.0001)                      64
(PID.TID 0000.0001)     ;
(PID.TID 0000.0001) writeBinaryPrec = /* Precision used for writing binary files */
(PID.TID 0000.0001)                      64
(PID.TID 0000.0001)     ;
(PID.TID 0000.0001)  globalFiles = /* write "global" (=not per tile) files */
(PID.TID 0000.0001)                   F
(PID.TID 0000.0001)     ;
(PID.TID 0000.0001)  useSingleCpuIO = /* only master MPI process does I/O */
(PID.TID 0000.0001)                   F
(PID.TID 0000.0001)     ;
(PID.TID 0000.0001)  useSingleCpuInput = /* only master process reads input */
(PID.TID 0000.0001)                   F
(PID.TID 0000.0001)     ;
(PID.TID 0000.0001) /* debLev[*]  : level of debug & auxiliary message printing */
(PID.TID 0000.0001) debLevZero =  0 ; /* level of disabled aux. msg printing */
(PID.TID 0000.0001)    debLevA =  1 ; /* level of minimum  aux. msg printing */
(PID.TID 0000.0001)    debLevB =  2 ; /* level of low aux. print (report read-file opening)*/
(PID.TID 0000.0001)    debLevC =  3 ; /* level of moderate debug prt (most pkgs debug msg) */
(PID.TID 0000.0001)    debLevD =  4 ; /* level of enhanced debug prt (add DEBUG_STATS prt) */
(PID.TID 0000.0001)    debLevE =  5 ; /* level of extensive debug printing */
(PID.TID 0000.0001) debugLevel =  /* select debug printing level */
(PID.TID 0000.0001)                       2
(PID.TID 0000.0001)     ;
(PID.TID 0000.0001) //
(PID.TID 0000.0001) // Elliptic solver(s) paramters ( PARM02 in namelist )
(PID.TID 0000.0001) //
(PID.TID 0000.0001) cg2dMaxIters =   /* Upper limit on 2d con. grad iterations  */
(PID.TID 0000.0001)                     200
(PID.TID 0000.0001)     ;
(PID.TID 0000.0001) cg2dChkResFreq =   /* 2d con. grad convergence test frequency */
(PID.TID 0000.0001)                       1
(PID.TID 0000.0001)     ;
(PID.TID 0000.0001) cg2dUseMinResSol= /* use cg2d last-iter(=0) / min-resid.(=1) solution */
(PID.TID 0000.0001)                       0
(PID.TID 0000.0001)     ;
(PID.TID 0000.0001) cg2dTargetResidual =   /* 2d con. grad target residual  */
(PID.TID 0000.0001)                 1.000000000000000E-07
(PID.TID 0000.0001)     ;
(PID.TID 0000.0001) cg2dTargetResWunit =   /* CG2d target residual [W units] */
(PID.TID 0000.0001)                 1.000000000000000E-17
(PID.TID 0000.0001)     ;
(PID.TID 0000.0001) cg2dPreCondFreq =   /* Freq. for updating cg2d preconditioner */
(PID.TID 0000.0001)                       1
(PID.TID 0000.0001)     ;
(PID.TID 0000.0001) useSRCGSolver =  /* use single reduction CG solver(s) */
(PID.TID 0000.0001)                   F
(PID.TID 0000.0001)     ;
(PID.TID 0000.0001) printResidualFreq = /* Freq. for printing CG residual */
(PID.TID 0000.0001)                       0
(PID.TID 0000.0001)     ;
(PID.TID 0000.0001) //
(PID.TID 0000.0001) // Time stepping paramters ( PARM03 in namelist )
(PID.TID 0000.0001) //
(PID.TID 0000.0001) deltaTMom =   /* Momentum equation timestep ( s ) */
(PID.TID 0000.0001)                 1.200000000000000E+02
(PID.TID 0000.0001)     ;
(PID.TID 0000.0001) deltaTFreeSurf = /* FreeSurface equation timestep ( s ) */
(PID.TID 0000.0001)                 1.200000000000000E+02
(PID.TID 0000.0001)     ;
(PID.TID 0000.0001) dTtracerLev =  /* Tracer equation timestep ( s ) */
(PID.TID 0000.0001)    20 @  1.200000000000000E+02              /* K =  1: 20 */
(PID.TID 0000.0001)     ;
(PID.TID 0000.0001) deltaTClock  =   /* Model clock timestep ( s ) */
(PID.TID 0000.0001)                 1.200000000000000E+02
(PID.TID 0000.0001)     ;
(PID.TID 0000.0001) cAdjFreq =   /* Convective adjustment interval ( s ) */
(PID.TID 0000.0001)                 0.000000000000000E+00
(PID.TID 0000.0001)     ;
(PID.TID 0000.0001) momForcingOutAB = /* =1: take Momentum Forcing out of Adams-Bash. stepping */
(PID.TID 0000.0001)                       1
(PID.TID 0000.0001)     ;
(PID.TID 0000.0001) tracForcingOutAB = /* =1: take T,S,pTr Forcing out of Adams-Bash. stepping */
(PID.TID 0000.0001)                       1
(PID.TID 0000.0001)     ;
(PID.TID 0000.0001) momDissip_In_AB = /* put Dissipation Tendency in Adams-Bash. stepping */
(PID.TID 0000.0001)                   T
(PID.TID 0000.0001)     ;
(PID.TID 0000.0001) doAB_onGtGs = /* apply AB on Tendencies (rather than on T,S)*/
(PID.TID 0000.0001)                   T
(PID.TID 0000.0001)     ;
(PID.TID 0000.0001) abEps =   /* Adams-Bashforth-2 stabilizing weight */
(PID.TID 0000.0001)                 1.000000000000000E-01
(PID.TID 0000.0001)     ;
(PID.TID 0000.0001) pickupStrictlyMatch= /* stop if pickup do not strictly match */
(PID.TID 0000.0001)                   T
(PID.TID 0000.0001)     ;
(PID.TID 0000.0001) nIter0   =   /* Run starting timestep number */
(PID.TID 0000.0001)                       0
(PID.TID 0000.0001)     ;
(PID.TID 0000.0001) nTimeSteps = /* Number of timesteps */
(PID.TID 0000.0001)                      15
(PID.TID 0000.0001)     ;
(PID.TID 0000.0001) nEndIter =   /* Run ending timestep number */
(PID.TID 0000.0001)                      15
(PID.TID 0000.0001)     ;
(PID.TID 0000.0001) baseTime =   /* Model base time ( s ) */
(PID.TID 0000.0001)                 0.000000000000000E+00
(PID.TID 0000.0001)     ;
(PID.TID 0000.0001) startTime =  /* Run start time ( s ) */
(PID.TID 0000.0001)                 0.000000000000000E+00
(PID.TID 0000.0001)     ;
(PID.TID 0000.0001) endTime  =   /* Integration ending time ( s ) */
(PID.TID 0000.0001)                 1.800000000000000E+03
(PID.TID 0000.0001)     ;
(PID.TID 0000.0001) pChkPtFreq = /* Permanent restart/pickup file interval ( s ) */
(PID.TID 0000.0001)                 0.000000000000000E+00
(PID.TID 0000.0001)     ;
(PID.TID 0000.0001) chkPtFreq  = /* Rolling restart/pickup file interval ( s ) */
(PID.TID 0000.0001)                 0.000000000000000E+00
(PID.TID 0000.0001)     ;
(PID.TID 0000.0001) pickup_write_mdsio =   /* Model IO flag. */
(PID.TID 0000.0001)                   T
(PID.TID 0000.0001)     ;
(PID.TID 0000.0001) pickup_read_mdsio =   /* Model IO flag. */
(PID.TID 0000.0001)                   T
(PID.TID 0000.0001)     ;
(PID.TID 0000.0001) pickup_write_mnc =   /* Model IO flag. */
(PID.TID 0000.0001)                   F
(PID.TID 0000.0001)     ;
(PID.TID 0000.0001) pickup_read_mnc =   /* Model IO flag. */
(PID.TID 0000.0001)                   F
(PID.TID 0000.0001)     ;
(PID.TID 0000.0001) pickup_write_immed =   /* Model IO flag. */
(PID.TID 0000.0001)                   F
(PID.TID 0000.0001)     ;
(PID.TID 0000.0001) writePickupAtEnd =   /* Model IO flag. */
(PID.TID 0000.0001)                   F
(PID.TID 0000.0001)     ;
(PID.TID 0000.0001) dumpFreq =   /* Model state write out interval ( s ). */
(PID.TID 0000.0001)                 0.000000000000000E+00
(PID.TID 0000.0001)     ;
(PID.TID 0000.0001) dumpInitAndLast= /* write out Initial & Last iter. model state */
(PID.TID 0000.0001)                   T
(PID.TID 0000.0001)     ;
(PID.TID 0000.0001) snapshot_mdsio =   /* Model IO flag. */
(PID.TID 0000.0001)                   F
(PID.TID 0000.0001)     ;
(PID.TID 0000.0001) snapshot_mnc =   /* Model IO flag. */
(PID.TID 0000.0001)                   T
(PID.TID 0000.0001)     ;
(PID.TID 0000.0001) monitorFreq =   /* Monitor output interval ( s ). */
(PID.TID 0000.0001)                 1.000000000000000E+00
(PID.TID 0000.0001)     ;
(PID.TID 0000.0001) monitorSelect = /* select group of variables to monitor */
(PID.TID 0000.0001)                       2
(PID.TID 0000.0001)     ;
(PID.TID 0000.0001) monitor_stdio =   /* Model IO flag. */
(PID.TID 0000.0001)                   T
(PID.TID 0000.0001)     ;
(PID.TID 0000.0001) monitor_mnc =   /* Model IO flag. */
(PID.TID 0000.0001)                   F
(PID.TID 0000.0001)     ;
(PID.TID 0000.0001) externForcingPeriod =   /* forcing period (s) */
(PID.TID 0000.0001)                 0.000000000000000E+00
(PID.TID 0000.0001)     ;
(PID.TID 0000.0001) externForcingCycle =   /* period of the cyle (s). */
(PID.TID 0000.0001)                 0.000000000000000E+00
(PID.TID 0000.0001)     ;
(PID.TID 0000.0001) tauThetaClimRelax =   /* relaxation time scale (s) */
(PID.TID 0000.0001)                 0.000000000000000E+00
(PID.TID 0000.0001)     ;
(PID.TID 0000.0001) tauSaltClimRelax =   /* relaxation time scale (s) */
(PID.TID 0000.0001)                 0.000000000000000E+00
(PID.TID 0000.0001)     ;
(PID.TID 0000.0001) latBandClimRelax =   /* max. Lat. where relaxation */
(PID.TID 0000.0001)                 1.800000000000000E+02
(PID.TID 0000.0001)     ;
(PID.TID 0000.0001) //
(PID.TID 0000.0001) // Gridding paramters ( PARM04 in namelist )
(PID.TID 0000.0001) //
(PID.TID 0000.0001) usingCartesianGrid = /* Cartesian coordinates flag ( True/False ) */
(PID.TID 0000.0001)                   F
(PID.TID 0000.0001)     ;
(PID.TID 0000.0001) usingCylindricalGrid = /* Cylindrical coordinates flag ( True/False ) */
(PID.TID 0000.0001)                   F
(PID.TID 0000.0001)     ;
(PID.TID 0000.0001) usingSphericalPolarGrid = /* Spherical coordinates flag ( True/False ) */
(PID.TID 0000.0001)                   F
(PID.TID 0000.0001)     ;
(PID.TID 0000.0001) usingCurvilinearGrid = /* Curvilinear coordinates flag ( True/False ) */
(PID.TID 0000.0001)                   T
(PID.TID 0000.0001)     ;
(PID.TID 0000.0001) selectSigmaCoord = /* Hybrid-Sigma Vert. Coordinate option */
(PID.TID 0000.0001)                       0
(PID.TID 0000.0001)     ;
(PID.TID 0000.0001) Ro_SeaLevel = /* r(1) ( units of r == Pa ) */
(PID.TID 0000.0001)                 1.010800000000000E+05
(PID.TID 0000.0001)     ;
(PID.TID 0000.0001) rSigmaBnd = /* r/sigma transition ( units of r == Pa ) */
(PID.TID 0000.0001)                 1.234567000000000E+05
(PID.TID 0000.0001)     ;
(PID.TID 0000.0001) rkSign =   /* index orientation relative to vertical coordinate */
(PID.TID 0000.0001)                -1.000000000000000E+00
(PID.TID 0000.0001)     ;
(PID.TID 0000.0001) gravitySign = /* gravity orientation relative to vertical coordinate */
(PID.TID 0000.0001)                 1.000000000000000E+00
(PID.TID 0000.0001)     ;
(PID.TID 0000.0001) mass2rUnit = /* convert mass per unit area [kg/m2] to r-units [Pa] */
(PID.TID 0000.0001)                 9.810000000000000E+00
(PID.TID 0000.0001)     ;
(PID.TID 0000.0001) rUnit2mass = /* convert r-units [Pa] to mass per unit area [kg/m2] */
(PID.TID 0000.0001)                 1.019367991845056E-01
(PID.TID 0000.0001)     ;
(PID.TID 0000.0001) drC =   /* C spacing ( units of r ) */
(PID.TID 0000.0001)                 2.527000000000000E+03,      /* K =  1 */
(PID.TID 0000.0001)    19 @  5.054000000000000E+03,             /* K =  2: 20 */
(PID.TID 0000.0001)                 2.527000000000000E+03       /* K = 21 */
(PID.TID 0000.0001)     ;
(PID.TID 0000.0001) drF =   /* W spacing ( units of r ) */
(PID.TID 0000.0001)    20 @  5.054000000000000E+03              /* K =  1: 20 */
(PID.TID 0000.0001)     ;
(PID.TID 0000.0001) radius_fromHorizGrid = /* sphere Radius of input horiz. grid */
(PID.TID 0000.0001)                 6.370000000000000E+06
(PID.TID 0000.0001)     ;
(PID.TID 0000.0001) rSphere =  /* Radius ( ignored - cartesian, m - spherical ) */
(PID.TID 0000.0001)                 6.370000000000000E+06
(PID.TID 0000.0001)     ;
(PID.TID 0000.0001) deepAtmosphere = /* Deep/Shallow Atmosphere flag (True/False) */
(PID.TID 0000.0001)                   F
(PID.TID 0000.0001)     ;
(PID.TID 0000.0001) xC =  /* xC(:,1,:,1) : P-point X coord ( deg. or m if cartesian) */
(PID.TID 0000.0001)                -4.439521994760536E+01,      /* I =  1 */
(PID.TID 0000.0001)                -4.295641272275883E+01,      /* I =  2 */
(PID.TID 0000.0001)                -4.122055553388957E+01,      /* I =  3 */
(PID.TID 0000.0001)      . . .
(PID.TID 0000.0001)                 8.070819219728060E+01,      /* I = 46 */
(PID.TID 0000.0001)                 8.439652466417766E+01,      /* I = 47 */
(PID.TID 0000.0001)                 8.812739148696656E+01,      /* I = 48 */
(PID.TID 0000.0001)                 9.187260851303344E+01,      /* I = 49 */
(PID.TID 0000.0001)                 9.560347533582234E+01,      /* I = 50 */
(PID.TID 0000.0001)                 9.929180780271940E+01,      /* I = 51 */
(PID.TID 0000.0001)      . . .
(PID.TID 0000.0001)                 1.321863035748696E+02,      /* I = 94 */
(PID.TID 0000.0001)                 1.337919453120370E+02,      /* I = 95 */
(PID.TID 0000.0001)                 1.350000000000000E+02,      /* I = 96 */
(PID.TID 0000.0001)                 1.356047800523947E+02,      /* I = 97 */
(PID.TID 0000.0001)                 1.358367907661329E+02,      /* I = 98 */
(PID.TID 0000.0001)                 1.359720382181193E+02,      /* I = 99 */
(PID.TID 0000.0001)      . . .
(PID.TID 0000.0001)                -1.336511021209287E+02,      /* I =142 */
(PID.TID 0000.0001)                -1.336469399409420E+02,      /* I =143 */
(PID.TID 0000.0001)                -1.336449032499283E+02,      /* I =144 */
(PID.TID 0000.0001)                -1.336449032499283E+02,      /* I =145 */
(PID.TID 0000.0001)                -1.336469399409420E+02,      /* I =146 */
(PID.TID 0000.0001)                -1.336511021209287E+02,      /* I =147 */
(PID.TID 0000.0001)      . . .
(PID.TID 0000.0001)                 1.378136964251304E+02,      /* I =190 */
(PID.TID 0000.0001)                 1.362080546879630E+02,      /* I =191 */
(PID.TID 0000.0001)                 1.350000000000000E+02       /* I =192 */
(PID.TID 0000.0001)     ;
(PID.TID 0000.0001) yC =  /* yC(1,:,1,:) : P-point Y coord ( deg. or m if cartesian) */
(PID.TID 0000.0001)                -3.497677942598243E+01,      /* J =  1 */
(PID.TID 0000.0001)                -3.374005967394886E+01,      /* J =  2 */
(PID.TID 0000.0001)                -3.220655175667454E+01,      /* J =  3 */
(PID.TID 0000.0001)                -3.045756348838641E+01,      /* J =  4 */
(PID.TID 0000.0001)                -2.853728129852918E+01,      /* J =  5 */
(PID.TID 0000.0001)                -2.647426640173173E+01,      /* J =  6 */
(PID.TID 0000.0001)                -2.428936657094636E+01,      /* J =  7 */
(PID.TID 0000.0001)                -2.199915808312262E+01,      /* J =  8 */
(PID.TID 0000.0001)                -1.961768597440146E+01,      /* J =  9 */
(PID.TID 0000.0001)                -1.715743888281371E+01,      /* J = 10 */
(PID.TID 0000.0001)                -1.462993396899330E+01,      /* J = 11 */
(PID.TID 0000.0001)                -1.204608340464756E+01,      /* J = 12 */
(PID.TID 0000.0001)                -9.416429130284818E+00,      /* J = 13 */
(PID.TID 0000.0001)                -6.751293662992216E+00,      /* J = 14 */
(PID.TID 0000.0001)                -4.060875511835959E+00,      /* J = 15 */
(PID.TID 0000.0001)                -1.355307764409121E+00,      /* J = 16 */
(PID.TID 0000.0001)                 1.355307764409121E+00,      /* J = 17 */
(PID.TID 0000.0001)                 4.060875511835959E+00,      /* J = 18 */
(PID.TID 0000.0001)                 6.751293662992216E+00,      /* J = 19 */
(PID.TID 0000.0001)                 9.416429130284818E+00,      /* J = 20 */
(PID.TID 0000.0001)                 1.204608340464756E+01,      /* J = 21 */
(PID.TID 0000.0001)                 1.462993396899330E+01,      /* J = 22 */
(PID.TID 0000.0001)                 1.715743888281371E+01,      /* J = 23 */
(PID.TID 0000.0001)                 1.961768597440146E+01,      /* J = 24 */
(PID.TID 0000.0001)                 2.199915808312262E+01,      /* J = 25 */
(PID.TID 0000.0001)                 2.428936657094636E+01,      /* J = 26 */
(PID.TID 0000.0001)                 2.647426640173173E+01,      /* J = 27 */
(PID.TID 0000.0001)                 2.853728129852918E+01,      /* J = 28 */
(PID.TID 0000.0001)                 3.045756348838641E+01,      /* J = 29 */
(PID.TID 0000.0001)                 3.220655175667454E+01,      /* J = 30 */
(PID.TID 0000.0001)                 3.374005967394886E+01,      /* J = 31 */
(PID.TID 0000.0001)                 3.497677942598243E+01       /* J = 32 */
(PID.TID 0000.0001)     ;
(PID.TID 0000.0001) rcoord = /* P-point R coordinate (  units of r ) */
(PID.TID 0000.0001)                 9.855300000000000E+04,      /* K =  1 */
(PID.TID 0000.0001)                 9.349900000000000E+04,      /* K =  2 */
(PID.TID 0000.0001)                 8.844500000000000E+04,      /* K =  3 */
(PID.TID 0000.0001)                 8.339100000000000E+04,      /* K =  4 */
(PID.TID 0000.0001)                 7.833700000000000E+04,      /* K =  5 */
(PID.TID 0000.0001)                 7.328300000000000E+04,      /* K =  6 */
(PID.TID 0000.0001)                 6.822900000000000E+04,      /* K =  7 */
(PID.TID 0000.0001)                 6.317500000000000E+04,      /* K =  8 */
(PID.TID 0000.0001)                 5.812100000000000E+04,      /* K =  9 */
(PID.TID 0000.0001)                 5.306700000000000E+04,      /* K = 10 */
(PID.TID 0000.0001)                 4.801300000000000E+04,      /* K = 11 */
(PID.TID 0000.0001)                 4.295900000000000E+04,      /* K = 12 */
(PID.TID 0000.0001)                 3.790500000000000E+04,      /* K = 13 */
(PID.TID 0000.0001)                 3.285100000000000E+04,      /* K = 14 */
(PID.TID 0000.0001)                 2.779700000000000E+04,      /* K = 15 */
(PID.TID 0000.0001)                 2.274300000000000E+04,      /* K = 16 */
(PID.TID 0000.0001)                 1.768900000000000E+04,      /* K = 17 */
(PID.TID 0000.0001)                 1.263500000000000E+04,      /* K = 18 */
(PID.TID 0000.0001)                 7.581000000000000E+03,      /* K = 19 */
(PID.TID 0000.0001)                 2.527000000000000E+03       /* K = 20 */
(PID.TID 0000.0001)     ;
(PID.TID 0000.0001) rF =   /* W-Interf. R coordinate (  units of r ) */
(PID.TID 0000.0001)                 1.010800000000000E+05,      /* K =  1 */
(PID.TID 0000.0001)                 9.602600000000000E+04,      /* K =  2 */
(PID.TID 0000.0001)                 9.097200000000000E+04,      /* K =  3 */
(PID.TID 0000.0001)                 8.591800000000000E+04,      /* K =  4 */
(PID.TID 0000.0001)                 8.086400000000000E+04,      /* K =  5 */
(PID.TID 0000.0001)                 7.581000000000000E+04,      /* K =  6 */
(PID.TID 0000.0001)                 7.075600000000000E+04,      /* K =  7 */
(PID.TID 0000.0001)                 6.570200000000000E+04,      /* K =  8 */
(PID.TID 0000.0001)                 6.064800000000000E+04,      /* K =  9 */
(PID.TID 0000.0001)                 5.559400000000000E+04,      /* K = 10 */
(PID.TID 0000.0001)                 5.054000000000000E+04,      /* K = 11 */
(PID.TID 0000.0001)                 4.548600000000000E+04,      /* K = 12 */
(PID.TID 0000.0001)                 4.043200000000000E+04,      /* K = 13 */
(PID.TID 0000.0001)                 3.537800000000000E+04,      /* K = 14 */
(PID.TID 0000.0001)                 3.032400000000000E+04,      /* K = 15 */
(PID.TID 0000.0001)                 2.527000000000000E+04,      /* K = 16 */
(PID.TID 0000.0001)                 2.021600000000000E+04,      /* K = 17 */
(PID.TID 0000.0001)                 1.516200000000000E+04,      /* K = 18 */
(PID.TID 0000.0001)                 1.010800000000000E+04,      /* K = 19 */
(PID.TID 0000.0001)                 5.054000000000000E+03,      /* K = 20 */
(PID.TID 0000.0001)                 0.000000000000000E+00       /* K = 21 */
(PID.TID 0000.0001)     ;
(PID.TID 0000.0001) deepFacC = /* deep-model grid factor @ cell-Center (-) */
(PID.TID 0000.0001)    20 @  1.000000000000000E+00              /* K =  1: 20 */
(PID.TID 0000.0001)     ;
(PID.TID 0000.0001) deepFacF = /* deep-model grid factor @ W-Interface (-) */
(PID.TID 0000.0001)    21 @  1.000000000000000E+00              /* K =  1: 21 */
(PID.TID 0000.0001)     ;
(PID.TID 0000.0001) rVel2wUnit = /* convert units: rVel -> wSpeed (=1 if z-coord)*/
(PID.TID 0000.0001)                 8.299088287772964E-02,      /* K =  1 */
(PID.TID 0000.0001)                 8.638890293216914E-02,      /* K =  2 */
(PID.TID 0000.0001)                 9.041617201713111E-02,      /* K =  3 */
(PID.TID 0000.0001)                 9.483581781060731E-02,      /* K =  4 */
(PID.TID 0000.0001)                 9.988353290717637E-02,      /* K =  5 */
(PID.TID 0000.0001)                 1.056649626927390E-01,      /* K =  6 */
(PID.TID 0000.0001)                 1.121257692218901E-01,      /* K =  7 */
(PID.TID 0000.0001)                 1.194051469114864E-01,      /* K =  8 */
(PID.TID 0000.0001)                 1.276847289147875E-01,      /* K =  9 */
(PID.TID 0000.0001)                 1.372065176022861E-01,      /* K = 10 */
(PID.TID 0000.0001)                 1.483009141465203E-01,      /* K = 11 */
(PID.TID 0000.0001)                 1.614322681434870E-01,      /* K = 12 */
(PID.TID 0000.0001)                 1.774159962051914E-01,      /* K = 13 */
(PID.TID 0000.0001)                 1.973209376690589E-01,      /* K = 14 */
(PID.TID 0000.0001)                 2.230316384843163E-01,      /* K = 15 */
(PID.TID 0000.0001)                 2.575680599426761E-01,      /* K = 16 */
(PID.TID 0000.0001)                 3.091736104663851E-01,      /* K = 17 */
(PID.TID 0000.0001)                 3.932038624176537E-01,      /* K = 18 */
(PID.TID 0000.0001)                 5.651163998376351E-01,      /* K = 19 */
(PID.TID 0000.0001)                 1.030736779539694E+00,      /* K = 20 */
(PID.TID 0000.0001)                 1.000000000000000E+00       /* K = 21 */
(PID.TID 0000.0001)     ;
(PID.TID 0000.0001) wUnit2rVel = /* convert units: wSpeed -> rVel (=1 if z-coord)*/
(PID.TID 0000.0001)                 1.204951634835960E+01,      /* K =  1 */
(PID.TID 0000.0001)                 1.157556081925453E+01,      /* K =  2 */
(PID.TID 0000.0001)                 1.105996834073589E+01,      /* K =  3 */
(PID.TID 0000.0001)                 1.054453921615416E+01,      /* K =  4 */
(PID.TID 0000.0001)                 1.001166028968277E+01,      /* K =  5 */
(PID.TID 0000.0001)                 9.463875011321207E+00,      /* K =  6 */
(PID.TID 0000.0001)                 8.918556429441841E+00,      /* K =  7 */
(PID.TID 0000.0001)                 8.374848370156839E+00,      /* K =  8 */
(PID.TID 0000.0001)                 7.831790132611446E+00,      /* K =  9 */
(PID.TID 0000.0001)                 7.288283512148101E+00,      /* K = 10 */
(PID.TID 0000.0001)                 6.743046769165609E+00,      /* K = 11 */
(PID.TID 0000.0001)                 6.194548410303959E+00,      /* K = 12 */
(PID.TID 0000.0001)                 5.636470337451675E+00,      /* K = 13 */
(PID.TID 0000.0001)                 5.067885911211165E+00,      /* K = 14 */
(PID.TID 0000.0001)                 4.483668804999254E+00,      /* K = 15 */
(PID.TID 0000.0001)                 3.882468968483740E+00,      /* K = 16 */
(PID.TID 0000.0001)                 3.234428703314977E+00,      /* K = 17 */
(PID.TID 0000.0001)                 2.543210012870674E+00,      /* K = 18 */
(PID.TID 0000.0001)                 1.769546946942811E+00,      /* K = 19 */
(PID.TID 0000.0001)                 9.701797974518569E-01,      /* K = 20 */
(PID.TID 0000.0001)                 1.000000000000000E+00       /* K = 21 */
(PID.TID 0000.0001)     ;
(PID.TID 0000.0001) dBdrRef = /* Vertical grad. of reference buoyancy [(m/s/r)^2] */
(PID.TID 0000.0001)                 0.000000000000000E+00,      /* K =  1 */
(PID.TID 0000.0001)                 1.168695101832678E-06,      /* K =  2 */
(PID.TID 0000.0001)                 1.214731933662585E-06,      /* K =  3 */
(PID.TID 0000.0001)                 1.265376800132251E-06,      /* K =  4 */
(PID.TID 0000.0001)                 1.982108400861510E-06,      /* K =  5 */
(PID.TID 0000.0001)                 2.075677388535634E-06,      /* K =  6 */
(PID.TID 0000.0001)                 2.180603685167407E-06,      /* K =  7 */
(PID.TID 0000.0001)                 2.299237756774469E-06,      /* K =  8 */
(PID.TID 0000.0001)                 2.434651197433197E-06,      /* K =  9 */
(PID.TID 0000.0001)                 2.590943086329596E-06,      /* K = 10 */
(PID.TID 0000.0001)                 2.773719906973164E-06,      /* K = 11 */
(PID.TID 0000.0001)                 2.990877444713175E-06,      /* K = 12 */
(PID.TID 0000.0001)                 3.796258619174570E-06,      /* K = 13 */
(PID.TID 0000.0001)                 4.177197220701854E-06,      /* K = 14 */
(PID.TID 0000.0001)                 5.998085821035754E-06,      /* K = 15 */
(PID.TID 0000.0001)                 6.836650610103148E-06,      /* K = 16 */
(PID.TID 0000.0001)                 1.962224720100582E-05,      /* K = 17 */
(PID.TID 0000.0001)                 2.855207349352877E-05,      /* K = 18 */
(PID.TID 0000.0001)                 1.182300266773325E-04,      /* K = 19 */
(PID.TID 0000.0001)                 2.229643522577340E-04       /* K = 20 */
(PID.TID 0000.0001)     ;
(PID.TID 0000.0001) rotateGrid = /* use rotated grid ( True/False ) */
(PID.TID 0000.0001)                   F
(PID.TID 0000.0001)     ;
(PID.TID 0000.0001) phiEuler = /* Euler angle, rotation about original z-coordinate [rad] */
(PID.TID 0000.0001)                 0.000000000000000E+00
(PID.TID 0000.0001)     ;
(PID.TID 0000.0001) thetaEuler = /* Euler angle, rotation about new x-coordinate [rad] */
(PID.TID 0000.0001)                 0.000000000000000E+00
(PID.TID 0000.0001)     ;
(PID.TID 0000.0001) psiEuler = /* Euler angle, rotation about new z-coordinate [rad] */
(PID.TID 0000.0001)                 0.000000000000000E+00
(PID.TID 0000.0001)     ;
(PID.TID 0000.0001) dxF =  /* dxF(:,1,:,1) ( units: m ) */
(PID.TID 0000.0001)                 1.202082051331828E+05,      /* I =  1 */
(PID.TID 0000.0001)                 1.563594089971120E+05,      /* I =  2 */
(PID.TID 0000.0001)                 1.835530058121492E+05,      /* I =  3 */
(PID.TID 0000.0001)      . . .
(PID.TID 0000.0001)                 2.978501920522794E+05,      /* I = 46 */
(PID.TID 0000.0001)                 3.000967749619962E+05,      /* I = 47 */
(PID.TID 0000.0001)                 3.012190981969055E+05,      /* I = 48 */
(PID.TID 0000.0001)                 3.012190981969055E+05,      /* I = 49 */
(PID.TID 0000.0001)                 3.000967749619962E+05,      /* I = 50 */
(PID.TID 0000.0001)                 2.978501920522794E+05,      /* I = 51 */
(PID.TID 0000.0001)      . . .
(PID.TID 0000.0001)                 1.835530058121492E+05,      /* I = 94 */
(PID.TID 0000.0001)                 1.563594089971120E+05,      /* I = 95 */
(PID.TID 0000.0001)                 1.202082051331828E+05,      /* I = 96 */
(PID.TID 0000.0001)                 1.202082051331828E+05,      /* I = 97 */
(PID.TID 0000.0001)                 1.563594089971120E+05,      /* I = 98 */
(PID.TID 0000.0001)                 1.835530058121492E+05,      /* I = 99 */
(PID.TID 0000.0001)      . . .
(PID.TID 0000.0001)                 2.978501920522794E+05,      /* I =142 */
(PID.TID 0000.0001)                 3.000967749619962E+05,      /* I =143 */
(PID.TID 0000.0001)                 3.012190981969055E+05,      /* I =144 */
(PID.TID 0000.0001)                 3.012190981969055E+05,      /* I =145 */
(PID.TID 0000.0001)                 3.000967749619962E+05,      /* I =146 */
(PID.TID 0000.0001)                 2.978501920522794E+05,      /* I =147 */
(PID.TID 0000.0001)      . . .
(PID.TID 0000.0001)                 1.835530058121492E+05,      /* I =190 */
(PID.TID 0000.0001)                 1.563594089971120E+05,      /* I =191 */
(PID.TID 0000.0001)                 1.202082051331828E+05       /* I =192 */
(PID.TID 0000.0001)     ;
(PID.TID 0000.0001) dxF =  /* dxF(1,:,1,:) ( units: m ) */
(PID.TID 0000.0001)                 1.202082051331828E+05,      /* J =  1 */
(PID.TID 0000.0001)                 1.572908084538706E+05,      /* J =  2 */
(PID.TID 0000.0001)                 1.840412227747703E+05,      /* J =  3 */
(PID.TID 0000.0001)                 2.048868197919576E+05,      /* J =  4 */
(PID.TID 0000.0001)                 2.220405216043041E+05,      /* J =  5 */
(PID.TID 0000.0001)                 2.365892017348392E+05,      /* J =  6 */
(PID.TID 0000.0001)                 2.491250781852558E+05,      /* J =  7 */
(PID.TID 0000.0001)                 2.599949918261881E+05,      /* J =  8 */
(PID.TID 0000.0001)                 2.694110134598581E+05,      /* J =  9 */
(PID.TID 0000.0001)                 2.775055554645015E+05,      /* J = 10 */
(PID.TID 0000.0001)                 2.843615645344775E+05,      /* J = 11 */
(PID.TID 0000.0001)                 2.900303768613599E+05,      /* J = 12 */
(PID.TID 0000.0001)                 2.945429307892709E+05,      /* J = 13 */
(PID.TID 0000.0001)                 2.979171143158405E+05,      /* J = 14 */
(PID.TID 0000.0001)                 3.001626787528886E+05,      /* J = 15 */
(PID.TID 0000.0001)     2 @  3.012844832048790E+05,             /* J = 16: 17 */
(PID.TID 0000.0001)                 3.001626787528886E+05,      /* J = 18 */
(PID.TID 0000.0001)                 2.979171143158405E+05,      /* J = 19 */
(PID.TID 0000.0001)                 2.945429307892709E+05,      /* J = 20 */
(PID.TID 0000.0001)                 2.900303768613599E+05,      /* J = 21 */
(PID.TID 0000.0001)                 2.843615645344775E+05,      /* J = 22 */
(PID.TID 0000.0001)                 2.775055554645015E+05,      /* J = 23 */
(PID.TID 0000.0001)                 2.694110134598581E+05,      /* J = 24 */
(PID.TID 0000.0001)                 2.599949918261881E+05,      /* J = 25 */
(PID.TID 0000.0001)                 2.491250781852558E+05,      /* J = 26 */
(PID.TID 0000.0001)                 2.365892017348392E+05,      /* J = 27 */
(PID.TID 0000.0001)                 2.220405216043041E+05,      /* J = 28 */
(PID.TID 0000.0001)                 2.048868197919576E+05,      /* J = 29 */
(PID.TID 0000.0001)                 1.840412227747703E+05,      /* J = 30 */
(PID.TID 0000.0001)                 1.572908084538706E+05,      /* J = 31 */
(PID.TID 0000.0001)                 1.202082051331828E+05       /* J = 32 */
(PID.TID 0000.0001)     ;
(PID.TID 0000.0001) dyF =  /* dyF(:,1,:,1) ( units: m ) */
(PID.TID 0000.0001)                 1.202082051331828E+05,      /* I =  1 */
(PID.TID 0000.0001)                 1.572908084538706E+05,      /* I =  2 */
(PID.TID 0000.0001)                 1.840412227747703E+05,      /* I =  3 */
(PID.TID 0000.0001)      . . .
(PID.TID 0000.0001)                 2.979171143158405E+05,      /* I = 46 */
(PID.TID 0000.0001)                 3.001626787528886E+05,      /* I = 47 */
(PID.TID 0000.0001)                 3.012844832048790E+05,      /* I = 48 */
(PID.TID 0000.0001)                 3.012844832048790E+05,      /* I = 49 */
(PID.TID 0000.0001)                 3.001626787528886E+05,      /* I = 50 */
(PID.TID 0000.0001)                 2.979171143158405E+05,      /* I = 51 */
(PID.TID 0000.0001)      . . .
(PID.TID 0000.0001)                 1.840412227747703E+05,      /* I = 94 */
(PID.TID 0000.0001)                 1.572908084538706E+05,      /* I = 95 */
(PID.TID 0000.0001)                 1.202082051331828E+05,      /* I = 96 */
(PID.TID 0000.0001)                 1.202082051331828E+05,      /* I = 97 */
(PID.TID 0000.0001)                 1.572908084538706E+05,      /* I = 98 */
(PID.TID 0000.0001)                 1.840412227747703E+05,      /* I = 99 */
(PID.TID 0000.0001)      . . .
(PID.TID 0000.0001)                 2.979171143158405E+05,      /* I =142 */
(PID.TID 0000.0001)                 3.001626787528886E+05,      /* I =143 */
(PID.TID 0000.0001)                 3.012844832048790E+05,      /* I =144 */
(PID.TID 0000.0001)                 3.012844832048790E+05,      /* I =145 */
(PID.TID 0000.0001)                 3.001626787528886E+05,      /* I =146 */
(PID.TID 0000.0001)                 2.979171143158405E+05,      /* I =147 */
(PID.TID 0000.0001)      . . .
(PID.TID 0000.0001)                 1.840412227747703E+05,      /* I =190 */
(PID.TID 0000.0001)                 1.572908084538706E+05,      /* I =191 */
(PID.TID 0000.0001)                 1.202082051331828E+05       /* I =192 */
(PID.TID 0000.0001)     ;
(PID.TID 0000.0001) dyF =  /* dyF(1,:,1,:) ( units: m ) */
(PID.TID 0000.0001)                 1.202082051331828E+05,      /* J =  1 */
(PID.TID 0000.0001)                 1.563594089971120E+05,      /* J =  2 */
(PID.TID 0000.0001)                 1.835530058121492E+05,      /* J =  3 */
(PID.TID 0000.0001)                 2.045883481718707E+05,      /* J =  4 */
(PID.TID 0000.0001)                 2.218350349844185E+05,      /* J =  5 */
(PID.TID 0000.0001)                 2.364352994647058E+05,      /* J =  6 */
(PID.TID 0000.0001)                 2.490022710862746E+05,      /* J =  7 */
(PID.TID 0000.0001)                 2.598919724358304E+05,      /* J =  8 */
(PID.TID 0000.0001)                 2.693210245495156E+05,      /* J =  9 */
(PID.TID 0000.0001)                 2.774243179696503E+05,      /* J = 10 */
(PID.TID 0000.0001)                 2.842862532064524E+05,      /* J = 11 */
(PID.TID 0000.0001)                 2.899590699694043E+05,      /* J = 12 */
(PID.TID 0000.0001)                 2.944742915095688E+05,      /* J = 13 */
(PID.TID 0000.0001)                 2.978501920522794E+05,      /* J = 14 */
(PID.TID 0000.0001)                 3.000967749619962E+05,      /* J = 15 */
(PID.TID 0000.0001)     2 @  3.012190981969055E+05,             /* J = 16: 17 */
(PID.TID 0000.0001)                 3.000967749619962E+05,      /* J = 18 */
(PID.TID 0000.0001)                 2.978501920522794E+05,      /* J = 19 */
(PID.TID 0000.0001)                 2.944742915095688E+05,      /* J = 20 */
(PID.TID 0000.0001)                 2.899590699694043E+05,      /* J = 21 */
(PID.TID 0000.0001)                 2.842862532064524E+05,      /* J = 22 */
(PID.TID 0000.0001)                 2.774243179696503E+05,      /* J = 23 */
(PID.TID 0000.0001)                 2.693210245495156E+05,      /* J = 24 */
(PID.TID 0000.0001)                 2.598919724358304E+05,      /* J = 25 */
(PID.TID 0000.0001)                 2.490022710862746E+05,      /* J = 26 */
(PID.TID 0000.0001)                 2.364352994647058E+05,      /* J = 27 */
(PID.TID 0000.0001)                 2.218350349844185E+05,      /* J = 28 */
(PID.TID 0000.0001)                 2.045883481718707E+05,      /* J = 29 */
(PID.TID 0000.0001)                 1.835530058121492E+05,      /* J = 30 */
(PID.TID 0000.0001)                 1.563594089971120E+05,      /* J = 31 */
(PID.TID 0000.0001)                 1.202082051331828E+05       /* J = 32 */
(PID.TID 0000.0001)     ;
(PID.TID 0000.0001) dxG =  /* dxG(:,1,:,1) ( units: m ) */
(PID.TID 0000.0001)                 1.009837800879055E+05,      /* I =  1 */
(PID.TID 0000.0001)                 1.534505834330338E+05,      /* I =  2 */
(PID.TID 0000.0001)                 1.823321598773926E+05,      /* I =  3 */
(PID.TID 0000.0001)      . . .
(PID.TID 0000.0001)                 2.977867909042096E+05,      /* I = 46 */
(PID.TID 0000.0001)                 3.000380090330854E+05,      /* I = 47 */
(PID.TID 0000.0001)                 3.011625828699101E+05,      /* I = 48 */
(PID.TID 0000.0001)                 3.011625828699101E+05,      /* I = 49 */
(PID.TID 0000.0001)                 3.000380090330854E+05,      /* I = 50 */
(PID.TID 0000.0001)                 2.977867909042096E+05,      /* I = 51 */
(PID.TID 0000.0001)      . . .
(PID.TID 0000.0001)                 1.823321598773926E+05,      /* I = 94 */
(PID.TID 0000.0001)                 1.534505834330338E+05,      /* I = 95 */
(PID.TID 0000.0001)                 1.009837800879055E+05,      /* I = 96 */
(PID.TID 0000.0001)                 1.009837800879055E+05,      /* I = 97 */
(PID.TID 0000.0001)                 1.534505834330338E+05,      /* I = 98 */
(PID.TID 0000.0001)                 1.823321598773926E+05,      /* I = 99 */
(PID.TID 0000.0001)      . . .
(PID.TID 0000.0001)                 2.977867909042096E+05,      /* I =142 */
(PID.TID 0000.0001)                 3.000380090330854E+05,      /* I =143 */
(PID.TID 0000.0001)                 3.011625828699101E+05,      /* I =144 */
(PID.TID 0000.0001)                 3.011625828699101E+05,      /* I =145 */
(PID.TID 0000.0001)                 3.000380090330854E+05,      /* I =146 */
(PID.TID 0000.0001)                 2.977867909042096E+05,      /* I =147 */
(PID.TID 0000.0001)      . . .
(PID.TID 0000.0001)                 1.823321598773926E+05,      /* I =190 */
(PID.TID 0000.0001)                 1.534505834330338E+05,      /* I =191 */
(PID.TID 0000.0001)                 1.009837800879055E+05       /* I =192 */
(PID.TID 0000.0001)     ;
(PID.TID 0000.0001) dxG =  /* dxG(1,:,1,:) ( units: m ) */
(PID.TID 0000.0001)                 1.009837800879055E+05,      /* J =  1 */
(PID.TID 0000.0001)                 1.403701524205398E+05,      /* J =  2 */
(PID.TID 0000.0001)                 1.716197227386011E+05,      /* J =  3 */
(PID.TID 0000.0001)                 1.950254041626018E+05,      /* J =  4 */
(PID.TID 0000.0001)                 2.138410773065497E+05,      /* J =  5 */
(PID.TID 0000.0001)                 2.295958105911512E+05,      /* J =  6 */
(PID.TID 0000.0001)                 2.430829951739083E+05,      /* J =  7 */
(PID.TID 0000.0001)                 2.547526806712889E+05,      /* J =  8 */
(PID.TID 0000.0001)                 2.648750305193301E+05,      /* J =  9 */
(PID.TID 0000.0001)                 2.736173771018112E+05,      /* J = 10 */
(PID.TID 0000.0001)                 2.810845823202647E+05,      /* J = 11 */
(PID.TID 0000.0001)                 2.873420591008078E+05,      /* J = 12 */
(PID.TID 0000.0001)                 2.924298293668651E+05,      /* J = 13 */
(PID.TID 0000.0001)                 2.963715635865306E+05,      /* J = 14 */
(PID.TID 0000.0001)                 2.991805843171258E+05,      /* J = 15 */
(PID.TID 0000.0001)                 3.008638765647886E+05,      /* J = 16 */
(PID.TID 0000.0001)                 3.014246674484008E+05,      /* J = 17 */
(PID.TID 0000.0001)                 3.008638765647886E+05,      /* J = 18 */
(PID.TID 0000.0001)                 2.991805843171258E+05,      /* J = 19 */
(PID.TID 0000.0001)                 2.963715635865306E+05,      /* J = 20 */
(PID.TID 0000.0001)                 2.924298293668651E+05,      /* J = 21 */
(PID.TID 0000.0001)                 2.873420591008078E+05,      /* J = 22 */
(PID.TID 0000.0001)                 2.810845823202647E+05,      /* J = 23 */
(PID.TID 0000.0001)                 2.736173771018112E+05,      /* J = 24 */
(PID.TID 0000.0001)                 2.648750305193301E+05,      /* J = 25 */
(PID.TID 0000.0001)                 2.547526806712889E+05,      /* J = 26 */
(PID.TID 0000.0001)                 2.430829951739083E+05,      /* J = 27 */
(PID.TID 0000.0001)                 2.295958105911512E+05,      /* J = 28 */
(PID.TID 0000.0001)                 2.138410773065497E+05,      /* J = 29 */
(PID.TID 0000.0001)                 1.950254041626018E+05,      /* J = 30 */
(PID.TID 0000.0001)                 1.716197227386011E+05,      /* J = 31 */
(PID.TID 0000.0001)                 1.403701524205398E+05       /* J = 32 */
(PID.TID 0000.0001)     ;
(PID.TID 0000.0001) dyG =  /* dyG(:,1,:,1) ( units: m ) */
(PID.TID 0000.0001)                 1.009837800879055E+05,      /* I =  1 */
(PID.TID 0000.0001)                 1.403701524205398E+05,      /* I =  2 */
(PID.TID 0000.0001)                 1.716197227386011E+05,      /* I =  3 */
(PID.TID 0000.0001)      . . .
(PID.TID 0000.0001)                 2.963715635865306E+05,      /* I = 46 */
(PID.TID 0000.0001)                 2.991805843171258E+05,      /* I = 47 */
(PID.TID 0000.0001)                 3.008638765647886E+05,      /* I = 48 */
(PID.TID 0000.0001)                 3.014246674484008E+05,      /* I = 49 */
(PID.TID 0000.0001)                 3.008638765647886E+05,      /* I = 50 */
(PID.TID 0000.0001)                 2.991805843171258E+05,      /* I = 51 */
(PID.TID 0000.0001)      . . .
(PID.TID 0000.0001)                 1.950254041626018E+05,      /* I = 94 */
(PID.TID 0000.0001)                 1.716197227386011E+05,      /* I = 95 */
(PID.TID 0000.0001)                 1.403701524205398E+05,      /* I = 96 */
(PID.TID 0000.0001)                 1.009837800879055E+05,      /* I = 97 */
(PID.TID 0000.0001)                 1.403701524205398E+05,      /* I = 98 */
(PID.TID 0000.0001)                 1.716197227386011E+05,      /* I = 99 */
(PID.TID 0000.0001)      . . .
(PID.TID 0000.0001)                 2.963715635865306E+05,      /* I =142 */
(PID.TID 0000.0001)                 2.991805843171258E+05,      /* I =143 */
(PID.TID 0000.0001)                 3.008638765647886E+05,      /* I =144 */
(PID.TID 0000.0001)                 3.014246674484008E+05,      /* I =145 */
(PID.TID 0000.0001)                 3.008638765647886E+05,      /* I =146 */
(PID.TID 0000.0001)                 2.991805843171258E+05,      /* I =147 */
(PID.TID 0000.0001)      . . .
(PID.TID 0000.0001)                 1.950254041626018E+05,      /* I =190 */
(PID.TID 0000.0001)                 1.716197227386011E+05,      /* I =191 */
(PID.TID 0000.0001)                 1.403701524205398E+05       /* I =192 */
(PID.TID 0000.0001)     ;
(PID.TID 0000.0001) dyG =  /* dyG(1,:,1,:) ( units: m ) */
(PID.TID 0000.0001)                 1.009837800879055E+05,      /* J =  1 */
(PID.TID 0000.0001)                 1.534505834330338E+05,      /* J =  2 */
(PID.TID 0000.0001)                 1.823321598773926E+05,      /* J =  3 */
(PID.TID 0000.0001)                 2.038999045536999E+05,      /* J =  4 */
(PID.TID 0000.0001)                 2.213884732245467E+05,      /* J =  5 */
(PID.TID 0000.0001)                 2.361211699596122E+05,      /* J =  6 */
(PID.TID 0000.0001)                 2.487693460283865E+05,      /* J =  7 */
(PID.TID 0000.0001)                 2.597126963772147E+05,      /* J =  8 */
(PID.TID 0000.0001)                 2.691790288994575E+05,      /* J =  9 */
(PID.TID 0000.0001)                 2.773091043277394E+05,      /* J = 10 */
(PID.TID 0000.0001)                 2.841906470085516E+05,      /* J = 11 */
(PID.TID 0000.0001)                 2.898778860929753E+05,      /* J = 12 */
(PID.TID 0000.0001)                 2.944035815526416E+05,      /* J = 13 */
(PID.TID 0000.0001)                 2.977867909042096E+05,      /* J = 14 */
(PID.TID 0000.0001)                 3.000380090330854E+05,      /* J = 15 */
(PID.TID 0000.0001)     2 @  3.011625828699101E+05,             /* J = 16: 17 */
(PID.TID 0000.0001)                 3.000380090330854E+05,      /* J = 18 */
(PID.TID 0000.0001)                 2.977867909042096E+05,      /* J = 19 */
(PID.TID 0000.0001)                 2.944035815526416E+05,      /* J = 20 */
(PID.TID 0000.0001)                 2.898778860929753E+05,      /* J = 21 */
(PID.TID 0000.0001)                 2.841906470085516E+05,      /* J = 22 */
(PID.TID 0000.0001)                 2.773091043277394E+05,      /* J = 23 */
(PID.TID 0000.0001)                 2.691790288994575E+05,      /* J = 24 */
(PID.TID 0000.0001)                 2.597126963772147E+05,      /* J = 25 */
(PID.TID 0000.0001)                 2.487693460283865E+05,      /* J = 26 */
(PID.TID 0000.0001)                 2.361211699596122E+05,      /* J = 27 */
(PID.TID 0000.0001)                 2.213884732245467E+05,      /* J = 28 */
(PID.TID 0000.0001)                 2.038999045536999E+05,      /* J = 29 */
(PID.TID 0000.0001)                 1.823321598773926E+05,      /* J = 30 */
(PID.TID 0000.0001)                 1.534505834330338E+05,      /* J = 31 */
(PID.TID 0000.0001)                 1.009837800879055E+05       /* J = 32 */
(PID.TID 0000.0001)     ;
(PID.TID 0000.0001) dxC =  /* dxC(:,1,:,1) ( units: m ) */
(PID.TID 0000.0001)                 1.135373000692312E+05,      /* I =  1 */
(PID.TID 0000.0001)                 1.391343389937106E+05,      /* I =  2 */
(PID.TID 0000.0001)                 1.709574999026266E+05,      /* I =  3 */
(PID.TID 0000.0001)      . . .
(PID.TID 0000.0001)                 2.963038832565530E+05,      /* I = 46 */
(PID.TID 0000.0001)                 2.991142470004740E+05,      /* I = 47 */
(PID.TID 0000.0001)                 3.007982711627968E+05,      /* I = 48 */
(PID.TID 0000.0001)                 3.013593857228136E+05,      /* I = 49 */
(PID.TID 0000.0001)                 3.007982711627968E+05,      /* I = 50 */
(PID.TID 0000.0001)                 2.991142470004740E+05,      /* I = 51 */
(PID.TID 0000.0001)      . . .
(PID.TID 0000.0001)                 1.946503699269892E+05,      /* I = 94 */
(PID.TID 0000.0001)                 1.709574999026266E+05,      /* I = 95 */
(PID.TID 0000.0001)                 1.391343389937106E+05,      /* I = 96 */
(PID.TID 0000.0001)                 1.135373000692312E+05,      /* I = 97 */
(PID.TID 0000.0001)                 1.391343389937106E+05,      /* I = 98 */
(PID.TID 0000.0001)                 1.709574999026266E+05,      /* I = 99 */
(PID.TID 0000.0001)      . . .
(PID.TID 0000.0001)                 2.963038832565530E+05,      /* I =142 */
(PID.TID 0000.0001)                 2.991142470004740E+05,      /* I =143 */
(PID.TID 0000.0001)                 3.007982711627968E+05,      /* I =144 */
(PID.TID 0000.0001)                 3.013593857228136E+05,      /* I =145 */
(PID.TID 0000.0001)                 3.007982711627968E+05,      /* I =146 */
(PID.TID 0000.0001)                 2.991142470004740E+05,      /* I =147 */
(PID.TID 0000.0001)      . . .
(PID.TID 0000.0001)                 1.946503699269892E+05,      /* I =190 */
(PID.TID 0000.0001)                 1.709574999026266E+05,      /* I =191 */
(PID.TID 0000.0001)                 1.391343389937106E+05       /* I =192 */
(PID.TID 0000.0001)     ;
(PID.TID 0000.0001) dxC =  /* dxC(1,:,1,:) ( units: m ) */
(PID.TID 0000.0001)                 1.135373000692312E+05,      /* J =  1 */
(PID.TID 0000.0001)                 1.549545757850771E+05,      /* J =  2 */
(PID.TID 0000.0001)                 1.829777599966776E+05,      /* J =  3 */
(PID.TID 0000.0001)                 2.042717761866506E+05,      /* J =  4 */
(PID.TID 0000.0001)                 2.216367828252819E+05,      /* J =  5 */
(PID.TID 0000.0001)                 2.363029564123586E+05,      /* J =  6 */
(PID.TID 0000.0001)                 2.489113743322025E+05,      /* J =  7 */
(PID.TID 0000.0001)                 2.598293319150326E+05,      /* J =  8 */
(PID.TID 0000.0001)                 2.692787333338535E+05,      /* J =  9 */
(PID.TID 0000.0001)                 2.773972106720365E+05,      /* J = 10 */
(PID.TID 0000.0001)                 2.842706922224557E+05,      /* J = 11 */
(PID.TID 0000.0001)                 2.899523122489403E+05,      /* J = 12 */
(PID.TID 0000.0001)                 2.944741346384699E+05,      /* J = 13 */
(PID.TID 0000.0001)                 2.978547649292580E+05,      /* J = 14 */
(PID.TID 0000.0001)                 3.001044073506459E+05,      /* J = 15 */
(PID.TID 0000.0001)     2 @  3.012281885409289E+05,             /* J = 16: 17 */
(PID.TID 0000.0001)                 3.001044073506459E+05,      /* J = 18 */
(PID.TID 0000.0001)                 2.978547649292580E+05,      /* J = 19 */
(PID.TID 0000.0001)                 2.944741346384699E+05,      /* J = 20 */
(PID.TID 0000.0001)                 2.899523122489403E+05,      /* J = 21 */
(PID.TID 0000.0001)                 2.842706922224557E+05,      /* J = 22 */
(PID.TID 0000.0001)                 2.773972106720365E+05,      /* J = 23 */
(PID.TID 0000.0001)                 2.692787333338535E+05,      /* J = 24 */
(PID.TID 0000.0001)                 2.598293319150326E+05,      /* J = 25 */
(PID.TID 0000.0001)                 2.489113743322025E+05,      /* J = 26 */
(PID.TID 0000.0001)                 2.363029564123586E+05,      /* J = 27 */
(PID.TID 0000.0001)                 2.216367828252819E+05,      /* J = 28 */
(PID.TID 0000.0001)                 2.042717761866506E+05,      /* J = 29 */
(PID.TID 0000.0001)                 1.829777599966776E+05,      /* J = 30 */
(PID.TID 0000.0001)                 1.549545757850771E+05,      /* J = 31 */
(PID.TID 0000.0001)                 1.135373000692312E+05       /* J = 32 */
(PID.TID 0000.0001)     ;
(PID.TID 0000.0001) dyC =  /* dyC(:,1,:,1) ( units: m ) */
(PID.TID 0000.0001)                 1.135373000692312E+05,      /* I =  1 */
(PID.TID 0000.0001)                 1.549545757850771E+05,      /* I =  2 */
(PID.TID 0000.0001)                 1.829777599966776E+05,      /* I =  3 */
(PID.TID 0000.0001)      . . .
(PID.TID 0000.0001)                 2.978547649292580E+05,      /* I = 46 */
(PID.TID 0000.0001)                 3.001044073506459E+05,      /* I = 47 */
(PID.TID 0000.0001)                 3.012281885409289E+05,      /* I = 48 */
(PID.TID 0000.0001)                 3.012281885409289E+05,      /* I = 49 */
(PID.TID 0000.0001)                 3.001044073506459E+05,      /* I = 50 */
(PID.TID 0000.0001)                 2.978547649292580E+05,      /* I = 51 */
(PID.TID 0000.0001)      . . .
(PID.TID 0000.0001)                 1.829777599966776E+05,      /* I = 94 */
(PID.TID 0000.0001)                 1.549545757850771E+05,      /* I = 95 */
(PID.TID 0000.0001)                 1.135373000692312E+05,      /* I = 96 */
(PID.TID 0000.0001)                 1.135373000692312E+05,      /* I = 97 */
(PID.TID 0000.0001)                 1.549545757850771E+05,      /* I = 98 */
(PID.TID 0000.0001)                 1.829777599966776E+05,      /* I = 99 */
(PID.TID 0000.0001)      . . .
(PID.TID 0000.0001)                 2.978547649292580E+05,      /* I =142 */
(PID.TID 0000.0001)                 3.001044073506459E+05,      /* I =143 */
(PID.TID 0000.0001)                 3.012281885409289E+05,      /* I =144 */
(PID.TID 0000.0001)                 3.012281885409289E+05,      /* I =145 */
(PID.TID 0000.0001)                 3.001044073506459E+05,      /* I =146 */
(PID.TID 0000.0001)                 2.978547649292580E+05,      /* I =147 */
(PID.TID 0000.0001)      . . .
(PID.TID 0000.0001)                 1.829777599966776E+05,      /* I =190 */
(PID.TID 0000.0001)                 1.549545757850771E+05,      /* I =191 */
(PID.TID 0000.0001)                 1.135373000692312E+05       /* I =192 */
(PID.TID 0000.0001)     ;
(PID.TID 0000.0001) dyC =  /* dyC(1,:,1,:) ( units: m ) */
(PID.TID 0000.0001)                 1.135373000692312E+05,      /* J =  1 */
(PID.TID 0000.0001)                 1.391343389937106E+05,      /* J =  2 */
(PID.TID 0000.0001)                 1.709574999026266E+05,      /* J =  3 */
(PID.TID 0000.0001)                 1.946503699269892E+05,      /* J =  4 */
(PID.TID 0000.0001)                 2.135964483342134E+05,      /* J =  5 */
(PID.TID 0000.0001)                 2.294195678257306E+05,      /* J =  6 */
(PID.TID 0000.0001)                 2.429464709770498E+05,      /* J =  7 */
(PID.TID 0000.0001)                 2.546408290696998E+05,      /* J =  8 */
(PID.TID 0000.0001)                 2.647791839299727E+05,      /* J =  9 */
(PID.TID 0000.0001)                 2.735321911346108E+05,      /* J = 10 */
(PID.TID 0000.0001)                 2.810065951609633E+05,      /* J = 11 */
(PID.TID 0000.0001)                 2.872689479506990E+05,      /* J = 12 */
(PID.TID 0000.0001)                 2.923599955312932E+05,      /* J = 13 */
(PID.TID 0000.0001)                 2.963038832565530E+05,      /* J = 14 */
(PID.TID 0000.0001)                 2.991142470004740E+05,      /* J = 15 */
(PID.TID 0000.0001)                 3.007982711627968E+05,      /* J = 16 */
(PID.TID 0000.0001)                 3.013593857228136E+05,      /* J = 17 */
(PID.TID 0000.0001)                 3.007982711627968E+05,      /* J = 18 */
(PID.TID 0000.0001)                 2.991142470004740E+05,      /* J = 19 */
(PID.TID 0000.0001)                 2.963038832565530E+05,      /* J = 20 */
(PID.TID 0000.0001)                 2.923599955312932E+05,      /* J = 21 */
(PID.TID 0000.0001)                 2.872689479506990E+05,      /* J = 22 */
(PID.TID 0000.0001)                 2.810065951609633E+05,      /* J = 23 */
(PID.TID 0000.0001)                 2.735321911346108E+05,      /* J = 24 */
(PID.TID 0000.0001)                 2.647791839299727E+05,      /* J = 25 */
(PID.TID 0000.0001)                 2.546408290696998E+05,      /* J = 26 */
(PID.TID 0000.0001)                 2.429464709770498E+05,      /* J = 27 */
(PID.TID 0000.0001)                 2.294195678257306E+05,      /* J = 28 */
(PID.TID 0000.0001)                 2.135964483342134E+05,      /* J = 29 */
(PID.TID 0000.0001)                 1.946503699269892E+05,      /* J = 30 */
(PID.TID 0000.0001)                 1.709574999026266E+05,      /* J = 31 */
(PID.TID 0000.0001)                 1.391343389937106E+05       /* J = 32 */
(PID.TID 0000.0001)     ;
(PID.TID 0000.0001) dxV =  /* dxV(:,1,:,1) ( units: m ) */
(PID.TID 0000.0001)                 8.015229982413632E+04,      /* I =  1 */
(PID.TID 0000.0001)                 1.333130744933864E+05,      /* I =  2 */
(PID.TID 0000.0001)                 1.691744868129062E+05,      /* I =  3 */
(PID.TID 0000.0001)      . . .
(PID.TID 0000.0001)                 2.962371870847826E+05,      /* I = 46 */
(PID.TID 0000.0001)                 2.990534755671296E+05,      /* I = 47 */
(PID.TID 0000.0001)                 3.007409169495504E+05,      /* I = 48 */
(PID.TID 0000.0001)                 3.013031486919771E+05,      /* I = 49 */
(PID.TID 0000.0001)                 3.007409169495504E+05,      /* I = 50 */
(PID.TID 0000.0001)                 2.990534755671296E+05,      /* I = 51 */
(PID.TID 0000.0001)      . . .
(PID.TID 0000.0001)                 1.937548202849060E+05,      /* I = 94 */
(PID.TID 0000.0001)                 1.691744868129062E+05,      /* I = 95 */
(PID.TID 0000.0001)                 1.333130744933864E+05,      /* I = 96 */
(PID.TID 0000.0001)                 8.015229982413632E+04,      /* I = 97 */
(PID.TID 0000.0001)                 1.333130744933864E+05,      /* I = 98 */
(PID.TID 0000.0001)                 1.691744868129062E+05,      /* I = 99 */
(PID.TID 0000.0001)      . . .
(PID.TID 0000.0001)                 2.962371870847826E+05,      /* I =142 */
(PID.TID 0000.0001)                 2.990534755671296E+05,      /* I =143 */
(PID.TID 0000.0001)                 3.007409169495504E+05,      /* I =144 */
(PID.TID 0000.0001)                 3.013031486919771E+05,      /* I =145 */
(PID.TID 0000.0001)                 3.007409169495504E+05,      /* I =146 */
(PID.TID 0000.0001)                 2.990534755671296E+05,      /* I =147 */
(PID.TID 0000.0001)      . . .
(PID.TID 0000.0001)                 1.937548202849060E+05,      /* I =190 */
(PID.TID 0000.0001)                 1.691744868129062E+05,      /* I =191 */
(PID.TID 0000.0001)                 1.333130744933864E+05       /* I =192 */
(PID.TID 0000.0001)     ;
(PID.TID 0000.0001) dxV =  /* dxV(1,:,1,:) ( units: m ) */
(PID.TID 0000.0001)                 8.015229982413632E+04,      /* J =  1 */
(PID.TID 0000.0001)                 1.362652340208229E+05,      /* J =  2 */
(PID.TID 0000.0001)                 1.701080315742101E+05,      /* J =  3 */
(PID.TID 0000.0001)                 1.942331448101592E+05,      /* J =  4 */
(PID.TID 0000.0001)                 2.133486626971531E+05,      /* J =  5 */
(PID.TID 0000.0001)                 2.292584591272880E+05,      /* J =  6 */
(PID.TID 0000.0001)                 2.428369969078989E+05,      /* J =  7 */
(PID.TID 0000.0001)                 2.545652950875683E+05,      /* J =  8 */
(PID.TID 0000.0001)                 2.647274964828301E+05,      /* J =  9 */
(PID.TID 0000.0001)                 2.734980225206389E+05,      /* J = 10 */
(PID.TID 0000.0001)                 2.809856491525217E+05,      /* J = 11 */
(PID.TID 0000.0001)                 2.872580915202295E+05,      /* J = 12 */
(PID.TID 0000.0001)                 2.923567890694162E+05,      /* J = 13 */
(PID.TID 0000.0001)                 2.963063101754721E+05,      /* J = 14 */
(PID.TID 0000.0001)                 2.991205495886625E+05,      /* J = 15 */
(PID.TID 0000.0001)                 3.008068453676764E+05,      /* J = 16 */
(PID.TID 0000.0001)                 3.013686170436881E+05,      /* J = 17 */
(PID.TID 0000.0001)                 3.008068453676764E+05,      /* J = 18 */
(PID.TID 0000.0001)                 2.991205495886625E+05,      /* J = 19 */
(PID.TID 0000.0001)                 2.963063101754721E+05,      /* J = 20 */
(PID.TID 0000.0001)                 2.923567890694162E+05,      /* J = 21 */
(PID.TID 0000.0001)                 2.872580915202295E+05,      /* J = 22 */
(PID.TID 0000.0001)                 2.809856491525217E+05,      /* J = 23 */
(PID.TID 0000.0001)                 2.734980225206389E+05,      /* J = 24 */
(PID.TID 0000.0001)                 2.647274964828301E+05,      /* J = 25 */
(PID.TID 0000.0001)                 2.545652950875683E+05,      /* J = 26 */
(PID.TID 0000.0001)                 2.428369969078989E+05,      /* J = 27 */
(PID.TID 0000.0001)                 2.292584591272880E+05,      /* J = 28 */
(PID.TID 0000.0001)                 2.133486626971531E+05,      /* J = 29 */
(PID.TID 0000.0001)                 1.942331448101592E+05,      /* J = 30 */
(PID.TID 0000.0001)                 1.701080315742101E+05,      /* J = 31 */
(PID.TID 0000.0001)                 1.362652340208229E+05       /* J = 32 */
(PID.TID 0000.0001)     ;
(PID.TID 0000.0001) dyU =  /* dyU(:,1,:,1) ( units: m ) */
(PID.TID 0000.0001)                 8.015229982413632E+04,      /* I =  1 */
(PID.TID 0000.0001)                 1.362652340208229E+05,      /* I =  2 */
(PID.TID 0000.0001)                 1.701080315742101E+05,      /* I =  3 */
(PID.TID 0000.0001)      . . .
(PID.TID 0000.0001)                 2.963063101754721E+05,      /* I = 46 */
(PID.TID 0000.0001)                 2.991205495886625E+05,      /* I = 47 */
(PID.TID 0000.0001)                 3.008068453676764E+05,      /* I = 48 */
(PID.TID 0000.0001)                 3.013686170436881E+05,      /* I = 49 */
(PID.TID 0000.0001)                 3.008068453676764E+05,      /* I = 50 */
(PID.TID 0000.0001)                 2.991205495886625E+05,      /* I = 51 */
(PID.TID 0000.0001)      . . .
(PID.TID 0000.0001)                 1.942331448101592E+05,      /* I = 94 */
(PID.TID 0000.0001)                 1.701080315742101E+05,      /* I = 95 */
(PID.TID 0000.0001)                 1.362652340208229E+05,      /* I = 96 */
(PID.TID 0000.0001)                 8.015229982413632E+04,      /* I = 97 */
(PID.TID 0000.0001)                 1.362652340208229E+05,      /* I = 98 */
(PID.TID 0000.0001)                 1.701080315742101E+05,      /* I = 99 */
(PID.TID 0000.0001)      . . .
(PID.TID 0000.0001)                 2.963063101754721E+05,      /* I =142 */
(PID.TID 0000.0001)                 2.991205495886625E+05,      /* I =143 */
(PID.TID 0000.0001)                 3.008068453676764E+05,      /* I =144 */
(PID.TID 0000.0001)                 3.013686170436881E+05,      /* I =145 */
(PID.TID 0000.0001)                 3.008068453676764E+05,      /* I =146 */
(PID.TID 0000.0001)                 2.991205495886625E+05,      /* I =147 */
(PID.TID 0000.0001)      . . .
(PID.TID 0000.0001)                 1.942331448101592E+05,      /* I =190 */
(PID.TID 0000.0001)                 1.701080315742101E+05,      /* I =191 */
(PID.TID 0000.0001)                 1.362652340208229E+05       /* I =192 */
(PID.TID 0000.0001)     ;
(PID.TID 0000.0001) dyU =  /* dyU(1,:,1,:) ( units: m ) */
(PID.TID 0000.0001)                 8.015229982413632E+04,      /* J =  1 */
(PID.TID 0000.0001)                 1.333130744933864E+05,      /* J =  2 */
(PID.TID 0000.0001)                 1.691744868129062E+05,      /* J =  3 */
(PID.TID 0000.0001)                 1.937548202849060E+05,      /* J =  4 */
(PID.TID 0000.0001)                 2.130490056267208E+05,      /* J =  5 */
(PID.TID 0000.0001)                 2.290479919481738E+05,      /* J =  6 */
(PID.TID 0000.0001)                 2.426774358027003E+05,      /* J =  7 */
(PID.TID 0000.0001)                 2.544372984215561E+05,      /* J =  8 */
(PID.TID 0000.0001)                 2.646201463834826E+05,      /* J =  9 */
(PID.TID 0000.0001)                 2.734046499619031E+05,      /* J = 10 */
(PID.TID 0000.0001)                 2.809019351693761E+05,      /* J = 11 */
(PID.TID 0000.0001)                 2.871811105274442E+05,      /* J = 12 */
(PID.TID 0000.0001)                 2.922844849381675E+05,      /* J = 13 */
(PID.TID 0000.0001)                 2.962371870847826E+05,      /* J = 14 */
(PID.TID 0000.0001)                 2.990534755671296E+05,      /* J = 15 */
(PID.TID 0000.0001)                 3.007409169495504E+05,      /* J = 16 */
(PID.TID 0000.0001)                 3.013031486919771E+05,      /* J = 17 */
(PID.TID 0000.0001)                 3.007409169495504E+05,      /* J = 18 */
(PID.TID 0000.0001)                 2.990534755671296E+05,      /* J = 19 */
(PID.TID 0000.0001)                 2.962371870847826E+05,      /* J = 20 */
(PID.TID 0000.0001)                 2.922844849381675E+05,      /* J = 21 */
(PID.TID 0000.0001)                 2.871811105274442E+05,      /* J = 22 */
(PID.TID 0000.0001)                 2.809019351693761E+05,      /* J = 23 */
(PID.TID 0000.0001)                 2.734046499619031E+05,      /* J = 24 */
(PID.TID 0000.0001)                 2.646201463834826E+05,      /* J = 25 */
(PID.TID 0000.0001)                 2.544372984215561E+05,      /* J = 26 */
(PID.TID 0000.0001)                 2.426774358027003E+05,      /* J = 27 */
(PID.TID 0000.0001)                 2.290479919481738E+05,      /* J = 28 */
(PID.TID 0000.0001)                 2.130490056267208E+05,      /* J = 29 */
(PID.TID 0000.0001)                 1.937548202849060E+05,      /* J = 30 */
(PID.TID 0000.0001)                 1.691744868129062E+05,      /* J = 31 */
(PID.TID 0000.0001)                 1.333130744933864E+05       /* J = 32 */
(PID.TID 0000.0001)     ;
(PID.TID 0000.0001) rA  =  /* rA (:,1,:,1) ( units: m^2 ) */
(PID.TID 0000.0001)                 1.549786705672200E+10,      /* I =  1 */
(PID.TID 0000.0001)                 2.487202533723944E+10,      /* I =  2 */
(PID.TID 0000.0001)                 3.392265412140352E+10,      /* I =  3 */
(PID.TID 0000.0001)      . . .
(PID.TID 0000.0001)                 8.871245486529788E+10,      /* I = 46 */
(PID.TID 0000.0001)                 9.005359372079962E+10,      /* I = 47 */
(PID.TID 0000.0001)                 9.072735712796770E+10,      /* I = 48 */
(PID.TID 0000.0001)                 9.072735712796770E+10,      /* I = 49 */
(PID.TID 0000.0001)                 9.005359372079962E+10,      /* I = 50 */
(PID.TID 0000.0001)                 8.871245486529788E+10,      /* I = 51 */
(PID.TID 0000.0001)      . . .
(PID.TID 0000.0001)                 3.392265412140352E+10,      /* I = 94 */
(PID.TID 0000.0001)                 2.487202533723944E+10,      /* I = 95 */
(PID.TID 0000.0001)                 1.549786705672200E+10,      /* I = 96 */
(PID.TID 0000.0001)                 1.549786705672200E+10,      /* I = 97 */
(PID.TID 0000.0001)                 2.487202533723944E+10,      /* I = 98 */
(PID.TID 0000.0001)                 3.392265412140352E+10,      /* I = 99 */
(PID.TID 0000.0001)      . . .
(PID.TID 0000.0001)                 8.871245486529788E+10,      /* I =142 */
(PID.TID 0000.0001)                 9.005359372079962E+10,      /* I =143 */
(PID.TID 0000.0001)                 9.072735712796770E+10,      /* I =144 */
(PID.TID 0000.0001)                 9.072735712796770E+10,      /* I =145 */
(PID.TID 0000.0001)                 9.005359372079962E+10,      /* I =146 */
(PID.TID 0000.0001)                 8.871245486529788E+10,      /* I =147 */
(PID.TID 0000.0001)      . . .
(PID.TID 0000.0001)                 3.392265412140352E+10,      /* I =190 */
(PID.TID 0000.0001)                 2.487202533723944E+10,      /* I =191 */
(PID.TID 0000.0001)                 1.549786705672200E+10       /* I =192 */
(PID.TID 0000.0001)     ;
(PID.TID 0000.0001) rA  =  /* rA (1,:,1,:) ( units: m^2 ) */
(PID.TID 0000.0001)                 1.549786705672200E+10,      /* J =  1 */
(PID.TID 0000.0001)                 2.487202533723944E+10,      /* J =  2 */
(PID.TID 0000.0001)                 3.392265412140352E+10,      /* J =  3 */
(PID.TID 0000.0001)                 4.200427377313133E+10,      /* J =  4 */
(PID.TID 0000.0001)                 4.931323764668228E+10,      /* J =  5 */
(PID.TID 0000.0001)                 5.597545074899419E+10,      /* J =  6 */
(PID.TID 0000.0001)                 6.205603937791459E+10,      /* J =  7 */
(PID.TID 0000.0001)                 6.758299971934573E+10,      /* J =  8 */
(PID.TID 0000.0001)                 7.256155653843707E+10,      /* J =  9 */
(PID.TID 0000.0001)                 7.698291833687604E+10,      /* J = 10 */
(PID.TID 0000.0001)                 8.083005486272011E+10,      /* J = 11 */
(PID.TID 0000.0001)                 8.408183191745641E+10,      /* J = 12 */
(PID.TID 0000.0001)                 8.671615787312848E+10,      /* J = 13 */
(PID.TID 0000.0001)                 8.871245486529788E+10,      /* J = 14 */
(PID.TID 0000.0001)                 9.005359372079964E+10,      /* J = 15 */
(PID.TID 0000.0001)     2 @  9.072735712796770E+10,             /* J = 16: 17 */
(PID.TID 0000.0001)                 9.005359372079964E+10,      /* J = 18 */
(PID.TID 0000.0001)                 8.871245486529788E+10,      /* J = 19 */
(PID.TID 0000.0001)                 8.671615787312848E+10,      /* J = 20 */
(PID.TID 0000.0001)                 8.408183191745641E+10,      /* J = 21 */
(PID.TID 0000.0001)                 8.083005486272011E+10,      /* J = 22 */
(PID.TID 0000.0001)                 7.698291833687604E+10,      /* J = 23 */
(PID.TID 0000.0001)                 7.256155653843707E+10,      /* J = 24 */
(PID.TID 0000.0001)                 6.758299971934573E+10,      /* J = 25 */
(PID.TID 0000.0001)                 6.205603937791459E+10,      /* J = 26 */
(PID.TID 0000.0001)                 5.597545074899419E+10,      /* J = 27 */
(PID.TID 0000.0001)                 4.931323764668228E+10,      /* J = 28 */
(PID.TID 0000.0001)                 4.200427377313133E+10,      /* J = 29 */
(PID.TID 0000.0001)                 3.392265412140352E+10,      /* J = 30 */
(PID.TID 0000.0001)                 2.487202533723944E+10,      /* J = 31 */
(PID.TID 0000.0001)                 1.549786705672200E+10       /* J = 32 */
(PID.TID 0000.0001)     ;
(PID.TID 0000.0001) rAw =  /* rAw(:,1,:,1) ( units: m^2 ) */
(PID.TID 0000.0001)                 1.146542574196578E+10,      /* I =  1 */
(PID.TID 0000.0001)                 1.953030837147821E+10,      /* I =  2 */
(PID.TID 0000.0001)                 2.933967873337320E+10,      /* I =  3 */
(PID.TID 0000.0001)      . . .
(PID.TID 0000.0001)                 8.781604517750543E+10,      /* I = 46 */
(PID.TID 0000.0001)                 8.948917519517891E+10,      /* I = 47 */
(PID.TID 0000.0001)                 9.049933392602551E+10,      /* I = 48 */
(PID.TID 0000.0001)                 9.083715262395341E+10,      /* I = 49 */
(PID.TID 0000.0001)                 9.049933392602551E+10,      /* I = 50 */
(PID.TID 0000.0001)                 8.948917519517891E+10,      /* I = 51 */
(PID.TID 0000.0001)      . . .
(PID.TID 0000.0001)                 3.796176706541101E+10,      /* I = 94 */
(PID.TID 0000.0001)                 2.933967873337320E+10,      /* I = 95 */
(PID.TID 0000.0001)                 1.953030837147821E+10,      /* I = 96 */
(PID.TID 0000.0001)                 1.146542574196578E+10,      /* I = 97 */
(PID.TID 0000.0001)                 1.953030837147821E+10,      /* I = 98 */
(PID.TID 0000.0001)                 2.933967873337320E+10,      /* I = 99 */
(PID.TID 0000.0001)      . . .
(PID.TID 0000.0001)                 8.781604517750543E+10,      /* I =142 */
(PID.TID 0000.0001)                 8.948917519517891E+10,      /* I =143 */
(PID.TID 0000.0001)                 9.049933392602551E+10,      /* I =144 */
(PID.TID 0000.0001)                 9.083715262395341E+10,      /* I =145 */
(PID.TID 0000.0001)                 9.049933392602551E+10,      /* I =146 */
(PID.TID 0000.0001)                 8.948917519517891E+10,      /* I =147 */
(PID.TID 0000.0001)      . . .
(PID.TID 0000.0001)                 3.796176706541101E+10,      /* I =190 */
(PID.TID 0000.0001)                 2.933967873337320E+10,      /* I =191 */
(PID.TID 0000.0001)                 1.953030837147821E+10       /* I =192 */
(PID.TID 0000.0001)     ;
(PID.TID 0000.0001) rAw =  /* rAw(1,:,1,:) ( units: m^2 ) */
(PID.TID 0000.0001)                 1.146542574196578E+10,      /* J =  1 */
(PID.TID 0000.0001)                 2.377787005983833E+10,      /* J =  2 */
(PID.TID 0000.0001)                 3.336273018972140E+10,      /* J =  3 */
(PID.TID 0000.0001)                 4.165099566747280E+10,      /* J =  4 */
(PID.TID 0000.0001)                 4.906782896008959E+10,      /* J =  5 */
(PID.TID 0000.0001)                 5.579613053300137E+10,      /* J =  6 */
(PID.TID 0000.0001)                 6.192151981164894E+10,      /* J =  7 */
(PID.TID 0000.0001)                 6.748097638954340E+10,      /* J =  8 */
(PID.TID 0000.0001)                 7.248418794208269E+10,      /* J =  9 */
(PID.TID 0000.0001)                 7.692477203447566E+10,      /* J = 10 */
(PID.TID 0000.0001)                 8.078707194826852E+10,      /* J = 11 */
(PID.TID 0000.0001)                 8.405076334249313E+10,      /* J = 12 */
(PID.TID 0000.0001)                 8.669423991218034E+10,      /* J = 13 */
(PID.TID 0000.0001)                 8.869721460381146E+10,      /* J = 14 */
(PID.TID 0000.0001)                 9.004272888354184E+10,      /* J = 15 */
(PID.TID 0000.0001)     2 @  9.071865929421040E+10,             /* J = 16: 17 */
(PID.TID 0000.0001)                 9.004272888354184E+10,      /* J = 18 */
(PID.TID 0000.0001)                 8.869721460381146E+10,      /* J = 19 */
(PID.TID 0000.0001)                 8.669423991218034E+10,      /* J = 20 */
(PID.TID 0000.0001)                 8.405076334249313E+10,      /* J = 21 */
(PID.TID 0000.0001)                 8.078707194826852E+10,      /* J = 22 */
(PID.TID 0000.0001)                 7.692477203447566E+10,      /* J = 23 */
(PID.TID 0000.0001)                 7.248418794208269E+10,      /* J = 24 */
(PID.TID 0000.0001)                 6.748097638954340E+10,      /* J = 25 */
(PID.TID 0000.0001)                 6.192151981164894E+10,      /* J = 26 */
(PID.TID 0000.0001)                 5.579613053300137E+10,      /* J = 27 */
(PID.TID 0000.0001)                 4.906782896008959E+10,      /* J = 28 */
(PID.TID 0000.0001)                 4.165099566747280E+10,      /* J = 29 */
(PID.TID 0000.0001)                 3.336273018972140E+10,      /* J = 30 */
(PID.TID 0000.0001)                 2.377787005983833E+10,      /* J = 31 */
(PID.TID 0000.0001)                 1.146542574196578E+10       /* J = 32 */
(PID.TID 0000.0001)     ;
(PID.TID 0000.0001) rAs =  /* rAs(:,1,:,1) ( units: m^2 ) */
(PID.TID 0000.0001)                 1.146542574196578E+10,      /* I =  1 */
(PID.TID 0000.0001)                 2.377787005983833E+10,      /* I =  2 */
(PID.TID 0000.0001)                 3.336273018972140E+10,      /* I =  3 */
(PID.TID 0000.0001)      . . .
(PID.TID 0000.0001)                 8.869721460381146E+10,      /* I = 46 */
(PID.TID 0000.0001)                 9.004272888354184E+10,      /* I = 47 */
(PID.TID 0000.0001)                 9.071865929421040E+10,      /* I = 48 */
(PID.TID 0000.0001)                 9.071865929421040E+10,      /* I = 49 */
(PID.TID 0000.0001)                 9.004272888354184E+10,      /* I = 50 */
(PID.TID 0000.0001)                 8.869721460381146E+10,      /* I = 51 */
(PID.TID 0000.0001)      . . .
(PID.TID 0000.0001)                 3.336273018972140E+10,      /* I = 94 */
(PID.TID 0000.0001)                 2.377787005983833E+10,      /* I = 95 */
(PID.TID 0000.0001)                 1.146542574196578E+10,      /* I = 96 */
(PID.TID 0000.0001)                 1.146542574196578E+10,      /* I = 97 */
(PID.TID 0000.0001)                 2.377787005983833E+10,      /* I = 98 */
(PID.TID 0000.0001)                 3.336273018972140E+10,      /* I = 99 */
(PID.TID 0000.0001)      . . .
(PID.TID 0000.0001)                 8.869721460381146E+10,      /* I =142 */
(PID.TID 0000.0001)                 9.004272888354184E+10,      /* I =143 */
(PID.TID 0000.0001)                 9.071865929421040E+10,      /* I =144 */
(PID.TID 0000.0001)                 9.071865929421040E+10,      /* I =145 */
(PID.TID 0000.0001)                 9.004272888354184E+10,      /* I =146 */
(PID.TID 0000.0001)                 8.869721460381146E+10,      /* I =147 */
(PID.TID 0000.0001)      . . .
(PID.TID 0000.0001)                 3.336273018972140E+10,      /* I =190 */
(PID.TID 0000.0001)                 2.377787005983833E+10,      /* I =191 */
(PID.TID 0000.0001)                 1.146542574196578E+10       /* I =192 */
(PID.TID 0000.0001)     ;
(PID.TID 0000.0001) rAs =  /* rAs(1,:,1,:) ( units: m^2 ) */
(PID.TID 0000.0001)                 1.146542574196578E+10,      /* J =  1 */
(PID.TID 0000.0001)                 1.953030837147821E+10,      /* J =  2 */
(PID.TID 0000.0001)                 2.933967873337320E+10,      /* J =  3 */
(PID.TID 0000.0001)                 3.796176706541101E+10,      /* J =  4 */
(PID.TID 0000.0001)                 4.567569462064098E+10,      /* J =  5 */
(PID.TID 0000.0001)                 5.267377164042021E+10,      /* J =  6 */
(PID.TID 0000.0001)                 5.905615583203223E+10,      /* J =  7 */
(PID.TID 0000.0001)                 6.487043381386549E+10,      /* J =  8 */
(PID.TID 0000.0001)                 7.013339442433482E+10,      /* J =  9 */
(PID.TID 0000.0001)                 7.484316069116351E+10,      /* J = 10 */
(PID.TID 0000.0001)                 7.898662143005907E+10,      /* J = 11 */
(PID.TID 0000.0001)                 8.254445101987663E+10,      /* J = 12 */
(PID.TID 0000.0001)                 8.549478360691351E+10,      /* J = 13 */
(PID.TID 0000.0001)                 8.781604517750543E+10,      /* J = 14 */
(PID.TID 0000.0001)                 8.948917519517891E+10,      /* J = 15 */
(PID.TID 0000.0001)                 9.049933392602551E+10,      /* J = 16 */
(PID.TID 0000.0001)                 9.083715262395341E+10,      /* J = 17 */
(PID.TID 0000.0001)                 9.049933392602551E+10,      /* J = 18 */
(PID.TID 0000.0001)                 8.948917519517891E+10,      /* J = 19 */
(PID.TID 0000.0001)                 8.781604517750543E+10,      /* J = 20 */
(PID.TID 0000.0001)                 8.549478360691351E+10,      /* J = 21 */
(PID.TID 0000.0001)                 8.254445101987663E+10,      /* J = 22 */
(PID.TID 0000.0001)                 7.898662143005907E+10,      /* J = 23 */
(PID.TID 0000.0001)                 7.484316069116351E+10,      /* J = 24 */
(PID.TID 0000.0001)                 7.013339442433482E+10,      /* J = 25 */
(PID.TID 0000.0001)                 6.487043381386549E+10,      /* J = 26 */
(PID.TID 0000.0001)                 5.905615583203223E+10,      /* J = 27 */
(PID.TID 0000.0001)                 5.267377164042021E+10,      /* J = 28 */
(PID.TID 0000.0001)                 4.567569462064098E+10,      /* J = 29 */
(PID.TID 0000.0001)                 3.796176706541101E+10,      /* J = 30 */
(PID.TID 0000.0001)                 2.933967873337320E+10,      /* J = 31 */
(PID.TID 0000.0001)                 1.953030837147821E+10       /* J = 32 */
(PID.TID 0000.0001)     ;
(PID.TID 0000.0001) globalArea = /* Integrated horizontal Area (m^2) */
(PID.TID 0000.0001)                 5.098642104278459E+14
(PID.TID 0000.0001)     ;
(PID.TID 0000.0001) hasWetCSCorners = /* Domain contains CS corners (True/False) */
(PID.TID 0000.0001)                   T
(PID.TID 0000.0001)     ;
(PID.TID 0000.0001) // =======================================================
(PID.TID 0000.0001) // End of Model config. summary
(PID.TID 0000.0001) // =======================================================
(PID.TID 0000.0001) 
(PID.TID 0000.0001) == Packages configuration : Check & print summary ==
(PID.TID 0000.0001) 
(PID.TID 0000.0001) GAD_CHECK: #define ALLOW_GENERIC_ADVDIFF
(PID.TID 0000.0001) // =======================================================
(PID.TID 0000.0001) // Check Model config. (CONFIG_CHECK):
(PID.TID 0000.0001) // CONFIG_CHECK : Normal End
(PID.TID 0000.0001) // =======================================================
(PID.TID 0000.0001) 
(PID.TID 0000.0001)  MDS_READ_FIELD: opening global file: U.input.20Lev
(PID.TID 0000.0001)  MDS_READ_FIELD: opening global file: V.input.20Lev
(PID.TID 0000.0001)  MDS_READ_FIELD: opening global file: T.input.20Lev
(PID.TID 0000.0001)  MDS_READ_FIELD: opening global file: RH.input.20Lev
(PID.TID 0000.0001) // =======================================================
(PID.TID 0000.0001) // Field Initial Salinity at iteration          1
(PID.TID 0000.0001) // CMIN =          6.688321003390098E-04
(PID.TID 0000.0001) // CMAX =          3.009632860529917E-02
(PID.TID 0000.0001) // CINT =          1.089907277961487E-03
(PID.TID 0000.0001) // SYMBOLS (CMIN->CMAX): -abcdefghijklmnopqrstuvwxyz+
(PID.TID 0000.0001) //                  0.0: .
(PID.TID 0000.0001) // RANGE I (Lo:Hi:Step):(     1:   192:     1)
(PID.TID 0000.0001) // RANGE J (Lo:Hi:Step):(    32:     1:    -1)
(PID.TID 0000.0001) // RANGE K (Lo:Hi:Step):(   1:   1:   1)
(PID.TID 0000.0001) // =======================================================
(PID.TID 0000.0001) K =   1
(PID.TID 0000.0001)                I=10      I=20      I=30      I=40      I=50      I=60      I=70      I=80      I=90      I=100     I=110     I=120     I=130     I=140     I=150     I=160     I=170     I=180     I=190
(PID.TID 0000.0001) |--J--|123456789|123456789|123456789|123456789|123456789|123456789|123456789|123456789|123456789|123456789|123456789|123456789|123456789|123456789|123456789|123456789|123456789|123456789|123456789|12
(PID.TID 0000.0001)     32 eeeeeeeedddddddddcccccdddddddccdddddcccbbbbcccccbbbbbbbbbccdddeeddddddddddccccccccbbbbccccddeeeeffffghijklnqtwxyxwuspnmlkjihfffeeefffghjjkmortwxxwvtrpnmkhgffffeeedddddddcccccccccccccdddddddddd
(PID.TID 0000.0001)     31 eeeeeeeeeedddeeddcccccdddeeeddccddddcccccbddcccbbbbbbbbcbcdeeeeedddddddcccccccccccbbbcccccddedeefffggghjklnpsvwxxwurpnmlkjihgfffeeffgghijkloqtwxyxvsqpnlkjhgfffeedddddddcccccccccccccccccccddddd
(PID.TID 0000.0001)     30 fffeeeeeeeeeeefedddccdddeeeeeddccdddcccccceeecceeeddccccbcdeeeeeddddccccccbbbbcccbbbbbccccdddddeefgghhijkmnpsuwxxvtrpomlkjihggffeeffgghijkmnqtxyyxvtqnlkkkjhgffeedddddcccccccccccccccccccccccddd
(PID.TID 0000.0001)     29 fffffffffeefffeeeedccdeeeeefeedcccddcccddddgggfeeeeedccdcdeeffffdddcccbbbbbbbbcccbbbbbbccccdddddefghhiijkmoprtvwwvtrponmlkihhgffeefgghhijkmnqtxzyxvtqnlkjjjigfeeeddddccccbbbbbbbbbbbbcccccccccdd
(PID.TID 0000.0001)     28 gggggggfffggggfeedcccddddddffedccccddddddefeggfffffeeddddeffggggdddccbbbbbbbbbbbbbbbbbbcccccccddefghiijkkmoqstvwwvtrqonmlkjihggfeffghhiijkmorvyzywusqnlkjjihgfeddddcccccccbcbbbbbbbbbbcccccccccd
(PID.TID 0000.0001)     27 hhhhhhggghggfeedcccddddddddefeddccceeeddeffgfggggggfedfffgghhhhhdddcccbbbbbbbbbbbbbbbbbcccccccddefgghijklmoqsuvwvvtrqonmlkjihgfeefghhiijklmoswzzywusqnlkjihhgfdddddccccccbbbbbbbbbbbbbbccccccccd
(PID.TID 0000.0001)     26 iiihhhhiihgfedcccdddcddcccdeedeedcdffffdeffghgiiiiggfegghhiiijiiddddccbbbbbbbbbbbbbbbbbccccccccdefgghikllmoqsuwwvvtsqpnmlkjhgffeefghhijjkkmorw++ywuspnmlkihgfeddcccccccbbbbbbbbbbbbbbbbccccccccd
(PID.TID 0000.0001)     25 jjiiiiiiihfeedcccddddddccccddeeddcdefggggghhiijjjjhhgihhijkkkkjkedddccbbbbbbbbbbbbbbabbbbccccccdeffghijklmoqsuwwwvusqpnmljihgffeegghhiijklmorws+ywurqqlligigeddccccccbbbbbbbbbbbbbbbbbbbbbcccccd
(PID.TID 0000.0001)     24 jjjjjjjihgfeddcccddddeecccddeffedcdefghhiijjkllkkkiihkjjlmmmmllmddddccbbbbbbabaaabbaabbbbbccccccdeffghijklnqsuvwwvutrpnmkjhhgfffefghiiijklmorvwxwvtsoqjhgggeddccccccbbbbbbbbbbbbbbbbbbbbbbbccccd
(PID.TID 0000.0001)     23 lkkkkkjihgfedddddeffedddddefhiiffeefhiijjjklmmmmllnnmmlmnonnnnnodcccccbbbaaaaaaaaabaabbbbbbbccccdeefggijklnpruvwwvvtrpnlkjhhgfffefghhiijklnonqywwuutmkjgeggfeedcbcccbbbbbbbbaaa-aaaaaaabbbbccccd
(PID.TID 0000.0001)     22 mmmmllkjhgggfffffghgfefgggghiikkhgiijkklllnoonnnmmmnnoooppppppqqcccccbbbbaaaaaaaaabaaabbabbbccccddeffghiklnoqtvwwwvtrpnlkjhhgfeedefghhijjlmosrstwvuokkgeeeddeeddccbbbbbbbbbaaaaaaa--aaabbbbccccd
(PID.TID 0000.0001)     21 ooonnmlkjiijjjjjjkkjiijkkkklmmklmlklmnnnoopqqqppponooprrrrqqqrssdcccbbbbbaaaaaaaaaaaaabbbbbbbcccddeefghiklnoqsuwwwvtrpnmkjhhgfeddeefghhijkmoptyutsqnjggffffeeeeedccccbbbbbaaaaaaaaa---aabbbbcccc
(PID.TID 0000.0001)     20 rrrqpoonlllnoonnnoppnmmooooqqqompoppppqqqrstssssrqqqqqrsssssstttdccbbbbbba-aaaaaaaaaaabbbbbbccccddddefgiklnoqsuvwwvtrpnmkihgfeddddeeghhiikloqstwzrskihhggfffeeddddccbbbbbaaaaaaaaaaaaaaabbbbbccc
(PID.TID 0000.0001)     19 ttttsrqqppppssrqqrsutsrssrstssqtrrrrsssstuuuuutttssttttuuuuuuuuudcbbbbbbbaaaaaaaaaaaaababbbccccccdddeefhjlnoqruvwwvtromkjhgfedddddeffggijkmorsssspnkjjihhgggfeeddccbbbbbaaaaaaaaaaaaaaaaabbbbbcc
(PID.TID 0000.0001)     18 vvvuutttttttuutttstwwvvvvwxxtswutttuuuuvvvvvuuutttvwvvvvxxwvvvvvcccbbbbbbaaaaaaaaaaaaaabbbbccccccdddeefhjlmoprtvwwvtqnkjigfeddcccddeeghijlnppstsqpmlkjiihhhgfeeddccbbbbbbaaaaaaaaaaaa-aaabbbbbcc
(PID.TID 0000.0001)     17 wxxwwvvvvvvvvvvvvuvxyyxxy+uuutwvvuvvwwwwwvvuuuuuuuuxxwvy+ywvvvvvdccbbbbbbbbaaaaaaaaaaaabbbbbccccccddeefhjlmopruvvvusomkjhgfeddccccddeghiklonqstsrpnllkjiihhgfeeddcbbbbbbaaaaaaaaaaaaaa-aabbbbbcc
(PID.TID 0000.0001)     16 wxxxxwwwvvvvuuuuuuuxyyyyzvvvvuwwvvwwwxwwvvuuuuuuuvuvxwvxyxwvvuvwdccbbbbbbbbaaaaaaaaaaaaaaabbbcccccddefghjlmopruvvvtromkihgfeddcccccddegijmoorstsrqomlkjiihhgfeddcccbbbbbaaaaaaa-aaaaaaaaabbbbbcc
(PID.TID 0000.0001)     15 wxwwwwwwvvuttsrrrrstwxxxxtttttwvvvvvwwwvuuuttttttuuuuvvvvvvvuuutcccbbbbbbbbaaaaaaaaaaaaaaabbbbcccdddefgijlmoprtvvvtqomkihgfedddccccddegikmlorsttsronlkjjiihgfeddcccbbbbbaaaaaaaa--aaaa-aabbbbbbc
(PID.TID 0000.0001)     14 vwwwvuvvutsrqpooopppsvvvvqqqrxvtttuuuvuttttttsssrrsstsssstttttttbccbbbbbaabaaaaaaaaaaaaababbbbbccdddfghiklnoprtvvusqnljihgfeedddcccdeefikjlorsttsrpnmkjjjihgfedddccbbbbbaaaaaaaa-aaaaa-aabbbbbbc
(PID.TID 0000.0001)     13 tuuusssssrqponmmmmmmoooooooooussrsssttsssssssrrqqpqqqqpppqrrrrrrbccbbbbaaabaaaaaaaaaaaaaabbbbbcccddefghiklnoqrtvvuspnljihggeedddbbcceffhjkmprttttsqomlkkkihgfeddcccbbbbbaaaaaaaaaaaaaaaabbbbbbcc
(PID.TID 0000.0001)     12 rssqpppppponmmllkkjkommmmmmmsrqqqqqqrrrqqqqqqqppoooooonnnnopppppcccbbbbbbabbaaaaaaaaaaaabbbbbbcccdeffghjklnoqstvvurpmljihggfeeddbccddeghjknqstuutsqomllkkjhffeddccbbbbbbaaaaaaaaaaaaaaaabbbbbccc
(PID.TID 0000.0001)     11 pppnnnnnnnnmlllkjjihkkkkkkkkponnnppoppppooooonnnnmmmllllllllmmmmccccbbbbbbbbaaaaaaaaaabbbbbbbbccdefgghijlmnoqsuvvuromljjhhgfeeedbbcdefgjiknqsuuuutrpnmmlljhfeeddcccbbbbbbaaaaaaaaaaaaaabbbbbbccc
(PID.TID 0000.0001)     10 nnmlkklmmmmlkkkjjjiggiimliinmlklnonnnnoonnmmmllllllkkkjjjijjklkkcdccbbbbbbbaaaaaaaaaabbbabbbbccddefgghiklmnprsuvvuromlkjihgfeeeecccdehghiknqtuvvutrponnmkihfedddcccbbbbbbbaaaaaaaaaaaaabbbbbbccc
(PID.TID 0000.0001)      9 lkjiiijjkkkkkjjjjiigfgggjhhkkiijmmlllmmnmmlllkkkkkjjiiihhhghiiiiccccbbbbbbbbbaaaaaaaaaabbbbbbccddefghijklnoprsuvvuromlkjihgfeeeeccceegghiknrtvvvvusqponmkihfeeddccbbbbbbbbbbbbbbabaabbbbbbbbccdd
(PID.TID 0000.0001)      8 jhhhhgghijjkjjiiiiihfgggggkjihhhkjjjkkllllkkkkjjjihhhhhgfgggghhhdcccbbbbbbbbbbaaaaaaaaabbbbbccddeefghjjklnoqrtuvvuronmkjjhgfeeeeddddefghiknruvwwwutrponmkihfeeddcccbbbbbbbbbbbbbbbbbbbbbcccccddd
(PID.TID 0000.0001)      7 hgggggffgghiiiiiiihgggfgggghhhhhiiiiijjkkkjjjihihhggffggfffffgggdccccbbbbbbbbbbbaaaabbbbbbbbccdeeffghjklmnoqstuvvurpnmlkjhhgfffeddeefghhjloruvxxwvtsqpnmkigffeddccccbbbbbbbbbbbbbbbbbbbbcccccddd
(PID.TID 0000.0001)      6 gggffffffffghhhhhhhhffhfggihhhhhhhhhhhhijjihhhghhggffeeffeeeefffdccdcbbbbbbbbbbbbbbbbbbbbbbbccddefgghjkmnoprstvvvuspnmlkiihgffffdeefghiijlosuwxyxvusqpomkihgffeddccccccbbcccbbbbbbbccccccccccdde
(PID.TID 0000.0001)      5 fffffeeeeeeegghhhghhgfefffgfggggggghggghhhgggggggggfeeeeeeeeeeeedccdcbbbbbbbbbbbbbbbbbbbbbbbcccdefgghjkmnoprstvwvutqomlkihgfefffeeffghijkmosuwyyxwusrqomjihgffeeddcccccccccccbbbbcccccccccccddde
(PID.TID 0000.0001)      4 fffeeeeeedddeffffffgffeeeefffgfffffggfffgffffffeffffeedeeeeeeeeeddddcbbbbbbbbbbcbcbbbbbbbbbbccdeefgghikmnpqrtuvvvvxspnljihgfeeeeeefghiijlmpsvwyyywutrpnljihgfeeeedddddcccccccccbbcccccccccccddde
(PID.TID 0000.0001)      3 eeeeedddddddeeeeeeeeffeeeefffffffffffffffeeeeeeddeeeedddeeeeeeeedddcbbbbbbbbbccccccbbbbbbbbbcddeeefggiklnprstuvvvyrspnkihgfeeeeeeeeghijjlnpsuwyzyxvtrpmljihgffeeeeedddddddddccccbcccccddddcddddd
(PID.TID 0000.0001)      2 eeeeedddddccdddddddeeeeeeeeeeeeeeeeeeeeeeeeeddddcdddddddeeeeeeeedddcbbbbbbbbccccbbbbbbbbbbccdddeeeffghjlnoqstuvvvysrpmkigffeeeeeeeeghiijkmpsuwyzyxvsqomkjihgfffeeeeedddddedddccccccccdddddddddde
(PID.TID 0000.0001)      1 eeeeddeeddcccddddcdddddddddeeeeddddddddedddddcccccccccdddeeeeeeddddcbbbbbbbbccdcbbbbbbbbbbbdddeeeeefghikmoqstuvvvvtrpnjihgfeeeeeeeffghijkloruwyyywuspnmljihgfffeeeeeeddeeeeddccccccdddeeeeeeeeed
(PID.TID 0000.0001) // =======================================================
(PID.TID 0000.0001) // END OF FIELD                                          =
(PID.TID 0000.0001) // =======================================================
(PID.TID 0000.0001) 
(PID.TID 0000.0001) Start initial hydrostatic pressure computation
(PID.TID 0000.0001) Pressure is predetermined for buoyancyRelation ATMOSPHERIC
(PID.TID 0000.0001) 
(PID.TID 0000.0001)  write diagnostics summary to file ioUnit:      6
Iter.Nb:         0 ; Time(s):  0.0000000000000E+00
------------------------------------------------------------------------
2D/3D diagnostics: Number of lists:     4
------------------------------------------------------------------------
listId=    1 ; file name: SHfields
 nFlds, nActive,       freq     &     phase        , nLev               
   27  |   27  |         0.060000         0.000000 |   1
 levels:   1
 diag# | name   |   ipt  |  iMate | kLev|   count |   mate.C|           
   225 |RADSWT  |      1 |      0 |   1 |       0 |
   248 |OSR     |      2 |      0 |   1 |       0 |
   214 |OLR     |      3 |      0 |   1 |       0 |
   387 |PLALBEDO|      4 |      0 |   1 |       0 |
   278 |CLDFRC  |      5 |      0 |   1 |       0 |
   198 |PREACC  |      6 |      0 |   1 |       0 |
   199 |PRECON  |      7 |      0 |   1 |       0 |
   229 |EVAP    |      8 |      0 |   1 |       0 |
   182 |RADSWG  |      9 |      0 |   1 |       0 |
   358 |ALBNIRDF|     10 |      0 |   1 |       0 |
   356 |ALBVISDF|     11 |      0 |   1 |       0 |
   223 |LWGDOWN |     12 |      0 |   1 |       0 |
   213 |LWGUP   |     13 |      0 |   1 |       0 |
   177 |EFLUX   |     14 |      0 |   1 |       0 |
   176 |HFLUX   |     15 |      0 |   1 |       0 |
   282 |T2M     |     16 |      0 |   1 |       0 |
   283 |Q2M     |     17 |      0 |   1 |       0 |
   178 |UFLUX   |     18 |     19 |   1 |       0 |       0 |
   179 |VFLUX   |     19 |     18 |   1 |       0 |       0 |
   284 |U10M    |     20 |     21 |   1 |       0 |       0 |
   285 |V10M    |     21 |     20 |   1 |       0 |       0 |
   256 |PS      |     22 |      0 |   1 |       0 |
   249 |OSRCLR  |     23 |      0 |   1 |       0 |
   215 |OLRCLR  |     24 |      0 |   1 |       0 |
   259 |SWGCLR  |     25 |      0 |   1 |       0 |
   216 |LWGCLR  |     26 |      0 |   1 |       0 |
    93 |RSURF   |     27 |      0 |   1 |       0 |
------------------------------------------------------------------------
listId=    2 ; file name: MLfields
 nFlds, nActive,       freq     &     phase        , nLev               
    8  |    8  |        -0.060000         0.030000 |  17
 interp: 1.000E+05 9.250E+04 8.500E+04 7.000E+04 6.000E+04 5.000E+04 4.000E+04 3.000E+04 2.500E+04 2.000E+04
 interp: 1.500E+04 1.000E+04 7.000E+03 5.000E+03 3.000E+03 2.000E+03 1.000E+03
 diag# | name   |   ipt  |  iMate | kLev|   count |   mate.C|           
    29 |UVEL    |     28 |     48 |  20 |       0 |       0 |
    30 |VVEL    |     48 |     28 |  20 |       0 |       0 |
    69 |PHIHYD  |     68 |      0 |  20 |       0 |
    31 |WVEL    |     88 |      0 |  20 |       0 |
    27 |SALT    |    108 |      0 |  20 |       0 |
    28 |RELHUM  |    128 |      0 |  20 |       0 |
    92 |RCENTER |    148 |      0 |  20 |       0 |
    26 |THETA   |    168 |      0 |  20 |       0 |
------------------------------------------------------------------------
listId=    3 ; file name: MFfields
 nFlds, nActive,       freq     &     phase        , nLev               
   17  |   17  |        -0.060000         0.030000 |  17
 interp: 1.000E+05 9.250E+04 8.500E+04 7.000E+04 6.000E+04 5.000E+04 4.000E+04 3.000E+04 2.500E+04 2.000E+04
 interp: 1.500E+04 1.000E+04 7.000E+03 5.000E+03 3.000E+03 2.000E+03 1.000E+03
 diag# | name   |   ipt  |  iMate | kLev|   count |   mate.C|           
    34 |UVELSQ  |    188 |    208 |  20 |       0 |       0 |
    35 |VVELSQ  |    208 |    188 |  20 |       0 |       0 |
    32 |THETASQ |    228 |      0 |  20 |       0 |
    36 |WVELSQ  |    248 |      0 |  20 |       0 |
    70 |PHIHYDSQ|    268 |      0 |  20 |       0 |
    33 |SALTSQ  |    288 |      0 |  20 |       0 |
    39 |UV_VEL_C|    308 |    308 |  20 |       0 |       0 |
    41 |WU_VEL  |    328 |      0 |  20 |       0 |
    42 |WV_VEL  |    348 |      0 |  20 |       0 |
    55 |VVELTH  |    368 |    468 |  20 |       0 |       0 |
    56 |WVELTH  |    388 |      0 |  20 |       0 |
    58 |VVELSLT |    408 |    448 |  20 |       0 |       0 |
    59 |WVELSLT |    428 |      0 |  20 |       0 |
    57 |UVELSLT |    448 |    408 |  20 |       0 |       0 |
    54 |UVELTH  |    468 |    368 |  20 |       0 |       0 |
    60 |UVELPHI |    488 |    508 |  20 |       0 |       0 |
    61 |VVELPHI |    508 |    488 |  20 |       0 |       0 |
------------------------------------------------------------------------
listId=    4 ; file name: snapshot_ps
 nFlds, nActive,       freq     &     phase        , nLev               
    1  |    1  |        -0.060000         0.030000 |   1
 levels:   1
 diag# | name   |   ipt  |  iMate | kLev|   count |   mate.C|           
    93 |RSURF   |    528 |      0 |   1 |       0 |
------------------------------------------------------------------------
Global & Regional Statistics diagnostics: Number of lists:     1
------------------------------------------------------------------------
listId=   1 ; file name: GTfields
 nFlds, nActive,       freq     &     phase        |                    
   26  |   26  |         1.000000         0.000000 |
 Regions:   0
 diag# | name   |   ipt  |  iMate |    Volume   |   mate-Vol. |         
   225 |RADSWT  |      1 |      0 | 0.00000E+00 |
   248 |OSR     |      2 |      0 | 0.00000E+00 |
   214 |OLR     |      3 |      0 | 0.00000E+00 |
   387 |PLALBEDO|      4 |      0 | 0.00000E+00 |
   278 |CLDFRC  |      5 |      0 | 0.00000E+00 |
   198 |PREACC  |      6 |      0 | 0.00000E+00 |
   199 |PRECON  |      7 |      0 | 0.00000E+00 |
   229 |EVAP    |      8 |      0 | 0.00000E+00 |
   182 |RADSWG  |      9 |      0 | 0.00000E+00 |
   358 |ALBNIRDF|     10 |      0 | 0.00000E+00 |
   356 |ALBVISDF|     11 |      0 | 0.00000E+00 |
   223 |LWGDOWN |     12 |      0 | 0.00000E+00 |
   213 |LWGUP   |     13 |      0 | 0.00000E+00 |
   177 |EFLUX   |     14 |      0 | 0.00000E+00 |
   176 |HFLUX   |     15 |      0 | 0.00000E+00 |
   282 |T2M     |     16 |      0 | 0.00000E+00 |
   283 |Q2M     |     17 |      0 | 0.00000E+00 |
   178 |UFLUX   |     18 |      0 | 0.00000E+00 |
   179 |VFLUX   |     19 |      0 | 0.00000E+00 |
   284 |U10M    |     20 |      0 | 0.00000E+00 |
   285 |V10M    |     21 |      0 | 0.00000E+00 |
   256 |PS      |     22 |      0 | 0.00000E+00 |
   249 |OSRCLR  |     23 |      0 | 0.00000E+00 |
   215 |OLRCLR  |     24 |      0 | 0.00000E+00 |
   259 |SWGCLR  |     25 |      0 | 0.00000E+00 |
   216 |LWGCLR  |     26 |      0 | 0.00000E+00 |
------------------------------------------------------------------------
  In fizhi_init_vars: Beginning of New Experiment 
  Cold Start: Zero out Turb second moments 
  Initialize fizhi arrays that will be on pickup 
  Cold Start: Zero out Turb second moments 
  Initialize fizhi arrays that will be on pickup 
  Cold Start: Zero out Turb second moments 
  Initialize fizhi arrays that will be on pickup 
  Cold Start: Zero out Turb second moments 
  Initialize fizhi arrays that will be on pickup 
  Cold Start: Zero out Turb second moments 
  Initialize fizhi arrays that will be on pickup 
  Cold Start: Zero out Turb second moments 
  Initialize fizhi arrays that will be on pickup 
(PID.TID 0000.0001) // =======================================================
(PID.TID 0000.0001) // Model current state
(PID.TID 0000.0001) // =======================================================
(PID.TID 0000.0001) 
(PID.TID 0000.0001) // =======================================================
(PID.TID 0000.0001) // Begin MONITOR dynamic field statistics
(PID.TID 0000.0001) // =======================================================
(PID.TID 0000.0001) %MON time_tsnumber                =                     0
(PID.TID 0000.0001) %MON time_secondsf                =   0.0000000000000E+00
(PID.TID 0000.0001) %MON dynstat_eta_max              =   0.0000000000000E+00
(PID.TID 0000.0001) %MON dynstat_eta_min              =   0.0000000000000E+00
(PID.TID 0000.0001) %MON dynstat_eta_mean             =   0.0000000000000E+00
(PID.TID 0000.0001) %MON dynstat_eta_sd               =   0.0000000000000E+00
(PID.TID 0000.0001) %MON dynstat_eta_del2             =   0.0000000000000E+00
(PID.TID 0000.0001) %MON dynstat_uvel_max             =   4.1689124714060E+01
(PID.TID 0000.0001) %MON dynstat_uvel_min             =  -3.6855012364959E+01
(PID.TID 0000.0001) %MON dynstat_uvel_mean            =   1.7037315637278E+00
(PID.TID 0000.0001) %MON dynstat_uvel_sd              =   7.8762494662000E+00
(PID.TID 0000.0001) %MON dynstat_uvel_del2            =   4.6170039866525E-03
(PID.TID 0000.0001) %MON dynstat_vvel_max             =   3.8279724931338E+01
(PID.TID 0000.0001) %MON dynstat_vvel_min             =  -3.3449826571863E+01
(PID.TID 0000.0001) %MON dynstat_vvel_mean            =   1.6728858593484E+00
(PID.TID 0000.0001) %MON dynstat_vvel_sd              =   7.8521609366093E+00
(PID.TID 0000.0001) %MON dynstat_vvel_del2            =   4.7321651039721E-03
(PID.TID 0000.0001) %MON dynstat_wvel_max             =   2.0651102168184E-01
(PID.TID 0000.0001) %MON dynstat_wvel_min             =  -1.4850774831547E-01
(PID.TID 0000.0001) %MON dynstat_wvel_mean            =   1.5920826516130E-18
(PID.TID 0000.0001) %MON dynstat_wvel_sd              =   2.6334297146946E-02
(PID.TID 0000.0001) %MON dynstat_wvel_del2            =   1.0538214467621E-04
(PID.TID 0000.0001) %MON dynstat_theta_max            =   4.8585539276299E+02
(PID.TID 0000.0001) %MON dynstat_theta_min            =   2.6911078580507E+02
(PID.TID 0000.0001) %MON dynstat_theta_mean           =   3.2503096578545E+02
(PID.TID 0000.0001) %MON dynstat_theta_sd             =   4.7714841923137E+01
(PID.TID 0000.0001) %MON dynstat_theta_del2           =   1.3266932954941E-03
(PID.TID 0000.0001) %MON dynstat_salt_max             =   3.0096328605299E-02
(PID.TID 0000.0001) %MON dynstat_salt_min             =   0.0000000000000E+00
(PID.TID 0000.0001) %MON dynstat_salt_mean            =   2.6642499910156E-03
(PID.TID 0000.0001) %MON dynstat_salt_sd              =   4.4400329333276E-03
(PID.TID 0000.0001) %MON dynstat_salt_del2            =   1.2412774779216E-06
(PID.TID 0000.0001) %MON advcfl_uvel_max              =   3.1499896007934E-02
(PID.TID 0000.0001) %MON advcfl_vvel_max              =   3.5319712134133E-02
(PID.TID 0000.0001) %MON advcfl_wvel_max              =   4.9033087854809E-03
(PID.TID 0000.0001) %MON advcfl_W_hf_max              =   4.9033087854809E-03
(PID.TID 0000.0001) %MON am_eta_mean                  =   0.0000000000000E+00
(PID.TID 0000.0001) %MON am_uZo_mean                  =   2.9973677355930E+11
(PID.TID 0000.0001) %MON am_tot_mean                  =   2.9973677355930E+11
(PID.TID 0000.0001) %MON pe_b_mean                    =   0.0000000000000E+00
(PID.TID 0000.0001) %MON ke_max                       =   8.6575910092947E+02
(PID.TID 0000.0001) %MON ke_mean                      =   6.4696492683937E+01
(PID.TID 0000.0001) %MON ke_vol                       =   5.1537074390046E+19
(PID.TID 0000.0001) %MON vort_r_min                   =  -4.8334073392882E-05
(PID.TID 0000.0001) %MON vort_r_max                   =   5.4390382265555E-05
(PID.TID 0000.0001) %MON vort_a_mean                  =  -2.4009117748786E-19
(PID.TID 0000.0001) %MON vort_a_sd                    =   8.6051205768717E-05
(PID.TID 0000.0001) %MON vort_p_mean                  =  -2.4009117748786E-19
(PID.TID 0000.0001) %MON vort_p_sd                    =   8.6051205768717E-05
(PID.TID 0000.0001) %MON surfExpan_theta_mean         =   3.8975999242293E-17
(PID.TID 0000.0001) %MON surfExpan_salt_mean          =   1.5437467709100E-21
(PID.TID 0000.0001) %MON surfExpan_Heat_mean          =   3.9724034373426E-15
(PID.TID 0000.0001) %MON En_Budget_T2PE_mean          =  -2.2904633417966E-01
(PID.TID 0000.0001) // =======================================================
(PID.TID 0000.0001) // End MONITOR dynamic field statistics
(PID.TID 0000.0001) // =======================================================

 Low-Level Clouds are Grouped between levels:           30  and           19
 Mid-Level Clouds are Grouped between levels:           18  and           13


 Top Level Allowed for Convection :            5
           Highest Sub-Cloud Level:           22
           Lowest  Sub-Cloud Level:           26
     Total Number of Random Clouds:           13

 Creating Rand Numb Array in RNDCLOUD, iseed=           0
 IRAS:            1   IRAS0:            0  indx:            0
 Current Date     20040321  Current Time          200
(PID.TID 0000.0001) SOLVE_FOR_PRESSURE: putPmEinXvector =    F
 cg2d: Sum(rhs),rhsMax =   1.45519152283669E-11  3.41831225739805E+02
(PID.TID 0000.0001)      cg2d_init_res =   4.82233442687182E+03
(PID.TID 0000.0001)      cg2d_iters(min,last) =      -1       6
(PID.TID 0000.0001)      cg2d_last_res =   9.52260855019964E-11
(PID.TID 0000.0001) // =======================================================
(PID.TID 0000.0001) // Begin MONITOR dynamic field statistics
(PID.TID 0000.0001) // =======================================================
(PID.TID 0000.0001) %MON time_tsnumber                =                     1
(PID.TID 0000.0001) %MON time_secondsf                =   1.2000000000000E+02
(PID.TID 0000.0001) %MON dynstat_eta_max              =   1.1336570598595E+01
(PID.TID 0000.0001) %MON dynstat_eta_min              =  -6.8949863040053E+00
(PID.TID 0000.0001) %MON dynstat_eta_mean             =   6.2091223412907E-17
(PID.TID 0000.0001) %MON dynstat_eta_sd               =   1.0819660981854E+00
(PID.TID 0000.0001) %MON dynstat_eta_del2             =   2.3466288936652E-02
(PID.TID 0000.0001) %MON dynstat_uvel_max             =   4.1671138061642E+01
(PID.TID 0000.0001) %MON dynstat_uvel_min             =  -3.6890781747648E+01
(PID.TID 0000.0001) %MON dynstat_uvel_mean            =   1.7031681610638E+00
(PID.TID 0000.0001) %MON dynstat_uvel_sd              =   7.8744844835233E+00
(PID.TID 0000.0001) %MON dynstat_uvel_del2            =   4.6153785589045E-03
(PID.TID 0000.0001) %MON dynstat_vvel_max             =   3.8266775500840E+01
(PID.TID 0000.0001) %MON dynstat_vvel_min             =  -3.3384639383918E+01
(PID.TID 0000.0001) %MON dynstat_vvel_mean            =   1.6734037115564E+00
(PID.TID 0000.0001) %MON dynstat_vvel_sd              =   7.8532986763227E+00
(PID.TID 0000.0001) %MON dynstat_vvel_del2            =   4.7324730396823E-03
(PID.TID 0000.0001) %MON dynstat_wvel_max             =   2.0525558619551E-01
(PID.TID 0000.0001) %MON dynstat_wvel_min             =  -1.6045546196314E-01
(PID.TID 0000.0001) %MON dynstat_wvel_mean            =   3.1045611706454E-18
(PID.TID 0000.0001) %MON dynstat_wvel_sd              =   2.6352080673311E-02
(PID.TID 0000.0001) %MON dynstat_wvel_del2            =   1.0355442214830E-04
(PID.TID 0000.0001) %MON dynstat_theta_max            =   4.8595561820746E+02
(PID.TID 0000.0001) %MON dynstat_theta_min            =   2.6911257189656E+02
(PID.TID 0000.0001) %MON dynstat_theta_mean           =   3.2504145730353E+02
(PID.TID 0000.0001) %MON dynstat_theta_sd             =   4.7752604895141E+01
(PID.TID 0000.0001) %MON dynstat_theta_del2           =   1.3264494799727E-03
(PID.TID 0000.0001) %MON dynstat_salt_max             =   2.9557606801961E-02
(PID.TID 0000.0001) %MON dynstat_salt_min             =  -1.3792903940380E-10
(PID.TID 0000.0001) %MON dynstat_salt_mean            =   2.6643102691413E-03
(PID.TID 0000.0001) %MON dynstat_salt_sd              =   4.4270063272006E-03
(PID.TID 0000.0001) %MON dynstat_salt_del2            =   1.2449311438845E-06
(PID.TID 0000.0001) %MON advcfl_uvel_max              =   3.1564870220141E-02
(PID.TID 0000.0001) %MON advcfl_vvel_max              =   3.5318870620859E-02
(PID.TID 0000.0001) %MON advcfl_wvel_max              =   4.8735002658213E-03
(PID.TID 0000.0001) %MON advcfl_W_hf_max              =   4.8735002658213E-03
(PID.TID 0000.0001) %MON am_eta_mean                  =   0.0000000000000E+00
(PID.TID 0000.0001) %MON am_uZo_mean                  =   2.9974078833393E+11
(PID.TID 0000.0001) %MON am_tot_mean                  =   2.9974078833393E+11
(PID.TID 0000.0001) %MON pe_b_mean                    =   4.7144547234113E-06
(PID.TID 0000.0001) %MON ke_max                       =   8.6477680084984E+02
(PID.TID 0000.0001) %MON ke_mean                      =   6.4691433873744E+01
(PID.TID 0000.0001) %MON ke_vol                       =   5.1537074390046E+19
(PID.TID 0000.0001) %MON vort_r_min                   =  -4.8331721935831E-05
(PID.TID 0000.0001) %MON vort_r_max                   =   5.4416758889587E-05
(PID.TID 0000.0001) %MON vort_a_mean                  =   1.0185686317667E-19
(PID.TID 0000.0001) %MON vort_a_sd                    =   8.6051072717985E-05
(PID.TID 0000.0001) %MON vort_p_mean                  =   1.0185686317667E-19
(PID.TID 0000.0001) %MON vort_p_sd                    =   8.6051072717985E-05
(PID.TID 0000.0001) %MON surfExpan_theta_mean         =  -1.4490332218787E-03
(PID.TID 0000.0001) %MON surfExpan_salt_mean          =  -1.3364559393494E-06
(PID.TID 0000.0001) %MON surfExpan_Heat_mean          =  -8.9370328056731E-02
(PID.TID 0000.0001) %MON En_Budget_T2PE_mean          =  -2.1020189781715E-01
(PID.TID 0000.0001) // =======================================================
(PID.TID 0000.0001) // End MONITOR dynamic field statistics
(PID.TID 0000.0001) // =======================================================
 Current Date     20040321  Current Time          400
 cg2d: Sum(rhs),rhsMax =   7.27595761418343E-12  1.00713312877463E+03
(PID.TID 0000.0001)      cg2d_init_res =   9.48933253760313E+03
(PID.TID 0000.0001)      cg2d_iters(min,last) =      -1       6
(PID.TID 0000.0001)      cg2d_last_res =   1.81297217574114E-10
(PID.TID 0000.0001) // =======================================================
(PID.TID 0000.0001) // Begin MONITOR dynamic field statistics
(PID.TID 0000.0001) // =======================================================
(PID.TID 0000.0001) %MON time_tsnumber                =                     2
(PID.TID 0000.0001) %MON time_secondsf                =   2.4000000000000E+02
(PID.TID 0000.0001) %MON dynstat_eta_max              =   2.9623410510348E+01
(PID.TID 0000.0001) %MON dynstat_eta_min              =  -2.0300225891762E+01
(PID.TID 0000.0001) %MON dynstat_eta_mean             =  -2.9803787238195E-16
(PID.TID 0000.0001) %MON dynstat_eta_sd               =   3.1916765149238E+00
(PID.TID 0000.0001) %MON dynstat_eta_del2             =   6.2542580651990E-02
(PID.TID 0000.0001) %MON dynstat_uvel_max             =   4.1651637040227E+01
(PID.TID 0000.0001) %MON dynstat_uvel_min             =  -3.6924417462171E+01
(PID.TID 0000.0001) %MON dynstat_uvel_mean            =   1.7026136126295E+00
(PID.TID 0000.0001) %MON dynstat_uvel_sd              =   7.8725541486140E+00
(PID.TID 0000.0001) %MON dynstat_uvel_del2            =   4.6140381858401E-03
(PID.TID 0000.0001) %MON dynstat_vvel_max             =   3.8252043288845E+01
(PID.TID 0000.0001) %MON dynstat_vvel_min             =  -3.3316387438556E+01
(PID.TID 0000.0001) %MON dynstat_vvel_mean            =   1.6739310922773E+00
(PID.TID 0000.0001) %MON dynstat_vvel_sd              =   7.8542026786804E+00
(PID.TID 0000.0001) %MON dynstat_vvel_del2            =   4.7330961212639E-03
(PID.TID 0000.0001) %MON dynstat_wvel_max             =   2.0393933177158E-01
(PID.TID 0000.0001) %MON dynstat_wvel_min             =  -1.7160444521787E-01
(PID.TID 0000.0001) %MON dynstat_wvel_mean            =   3.5025818335486E-18
(PID.TID 0000.0001) %MON dynstat_wvel_sd              =   2.6376304982896E-02
(PID.TID 0000.0001) %MON dynstat_wvel_del2            =   1.0242660211104E-04
(PID.TID 0000.0001) %MON dynstat_theta_max            =   4.8605549978955E+02
(PID.TID 0000.0001) %MON dynstat_theta_min            =   2.6911436218817E+02
(PID.TID 0000.0001) %MON dynstat_theta_mean           =   3.2505194213046E+02
(PID.TID 0000.0001) %MON dynstat_theta_sd             =   4.7790429313051E+01
(PID.TID 0000.0001) %MON dynstat_theta_del2           =   1.3272543124991E-03
(PID.TID 0000.0001) %MON dynstat_salt_max             =   2.9371440476075E-02
(PID.TID 0000.0001) %MON dynstat_salt_min             =  -4.3075048005628E-10
(PID.TID 0000.0001) %MON dynstat_salt_mean            =   2.6643716265029E-03
(PID.TID 0000.0001) %MON dynstat_salt_sd              =   4.4155532302643E-03
(PID.TID 0000.0001) %MON dynstat_salt_del2            =   1.2985681931027E-06
(PID.TID 0000.0001) %MON advcfl_uvel_max              =   3.1609740771873E-02
(PID.TID 0000.0001) %MON advcfl_vvel_max              =   3.5314393490577E-02
(PID.TID 0000.0001) %MON advcfl_wvel_max              =   4.8422476874930E-03
(PID.TID 0000.0001) %MON advcfl_W_hf_max              =   4.8422307802604E-03
(PID.TID 0000.0001) %MON am_eta_mean                  =  -1.2567643036753E+06
(PID.TID 0000.0001) %MON am_uZo_mean                  =   2.9974341646664E+11
(PID.TID 0000.0001) %MON am_tot_mean                  =   2.9974215970234E+11
(PID.TID 0000.0001) %MON pe_b_mean                    =   4.1024367992468E-05
(PID.TID 0000.0001) %MON ke_max                       =   8.6375411891911E+02
(PID.TID 0000.0001) %MON ke_mean                      =   6.4683273479054E+01
(PID.TID 0000.0001) %MON ke_vol                       =   5.1537074390047E+19
(PID.TID 0000.0001) %MON vort_r_min                   =  -4.8326894344452E-05
(PID.TID 0000.0001) %MON vort_r_max                   =   5.4442038718713E-05
(PID.TID 0000.0001) %MON vort_a_mean                  =   1.4793496794706E-19
(PID.TID 0000.0001) %MON vort_a_sd                    =   8.6050863888436E-05
(PID.TID 0000.0001) %MON vort_p_mean                  =   1.4793496735944E-19
(PID.TID 0000.0001) %MON vort_p_sd                    =   8.6050907526497E-05
(PID.TID 0000.0001) %MON surfExpan_theta_mean         =   5.5878639626658E-04
(PID.TID 0000.0001) %MON surfExpan_salt_mean          =  -2.7399036188858E-06
(PID.TID 0000.0001) %MON surfExpan_Heat_mean          =   1.6725930141358E-01
(PID.TID 0000.0001) %MON En_Budget_T2PE_mean          =  -1.9161118957349E-01
(PID.TID 0000.0001) // =======================================================
(PID.TID 0000.0001) // End MONITOR dynamic field statistics
(PID.TID 0000.0001) // =======================================================
 Current Date     20040321  Current Time          600
 cg2d: Sum(rhs),rhsMax =  -8.73114913702011E-11  1.97796520276068E+03
(PID.TID 0000.0001)      cg2d_init_res =   1.41167579683200E+04
(PID.TID 0000.0001)      cg2d_iters(min,last) =      -1       6
(PID.TID 0000.0001)      cg2d_last_res =   2.62645012576814E-10
(PID.TID 0000.0001) // =======================================================
(PID.TID 0000.0001) // Begin MONITOR dynamic field statistics
(PID.TID 0000.0001) // =======================================================
(PID.TID 0000.0001) %MON time_tsnumber                =                     3
(PID.TID 0000.0001) %MON time_secondsf                =   3.6000000000000E+02
(PID.TID 0000.0001) %MON dynstat_eta_max              =   4.9183140312468E+01
(PID.TID 0000.0001) %MON dynstat_eta_min              =  -3.9860023570375E+01
(PID.TID 0000.0001) %MON dynstat_eta_mean             =  -2.9803787238195E-16
(PID.TID 0000.0001) %MON dynstat_eta_sd               =   6.3332990925858E+00
(PID.TID 0000.0001) %MON dynstat_eta_del2             =   1.1114321931921E-01
(PID.TID 0000.0001) %MON dynstat_uvel_max             =   4.1632014937181E+01
(PID.TID 0000.0001) %MON dynstat_uvel_min             =  -3.6956759833975E+01
(PID.TID 0000.0001) %MON dynstat_uvel_mean            =   1.7020740904070E+00
(PID.TID 0000.0001) %MON dynstat_uvel_sd              =   7.8705940676214E+00
(PID.TID 0000.0001) %MON dynstat_uvel_del2            =   4.6119777066712E-03
(PID.TID 0000.0001) %MON dynstat_vvel_max             =   3.8236331417946E+01
(PID.TID 0000.0001) %MON dynstat_vvel_min             =  -3.3246802237948E+01
(PID.TID 0000.0001) %MON dynstat_vvel_mean            =   1.6744726374036E+00
(PID.TID 0000.0001) %MON dynstat_vvel_sd              =   7.8550036058050E+00
(PID.TID 0000.0001) %MON dynstat_vvel_del2            =   4.7328195869632E-03
(PID.TID 0000.0001) %MON dynstat_wvel_max             =   2.0256702697051E-01
(PID.TID 0000.0001) %MON dynstat_wvel_min             =  -1.8224557461449E-01
(PID.TID 0000.0001) %MON dynstat_wvel_mean            =  -3.1841653032260E-18
(PID.TID 0000.0001) %MON dynstat_wvel_sd              =   2.6400502720239E-02
(PID.TID 0000.0001) %MON dynstat_wvel_del2            =   1.0186908644476E-04
(PID.TID 0000.0001) %MON dynstat_theta_max            =   4.8615512761160E+02
(PID.TID 0000.0001) %MON dynstat_theta_min            =   2.6911608688008E+02
(PID.TID 0000.0001) %MON dynstat_theta_mean           =   3.2506242110723E+02
(PID.TID 0000.0001) %MON dynstat_theta_sd             =   4.7828280394783E+01
(PID.TID 0000.0001) %MON dynstat_theta_del2           =   1.3261885936194E-03
(PID.TID 0000.0001) %MON dynstat_salt_max             =   2.9229586755082E-02
(PID.TID 0000.0001) %MON dynstat_salt_min             =  -7.8271735288607E-10
(PID.TID 0000.0001) %MON dynstat_salt_mean            =   2.6644323733244E-03
(PID.TID 0000.0001) %MON dynstat_salt_sd              =   4.4052914696482E-03
(PID.TID 0000.0001) %MON dynstat_salt_del2            =   1.3080977244387E-06
(PID.TID 0000.0001) %MON advcfl_uvel_max              =   3.1634368763699E-02
(PID.TID 0000.0001) %MON advcfl_vvel_max              =   3.5305180702411E-02
(PID.TID 0000.0001) %MON advcfl_wvel_max              =   4.8096642731423E-03
(PID.TID 0000.0001) %MON advcfl_W_hf_max              =   4.8096058659711E-03
(PID.TID 0000.0001) %MON am_eta_mean                  =   2.5251266372671E+06
(PID.TID 0000.0001) %MON am_uZo_mean                  =   2.9974111880638E+11
(PID.TID 0000.0001) %MON am_tot_mean                  =   2.9974364393302E+11
(PID.TID 0000.0001) %MON pe_b_mean                    =   1.6153407894051E-04
(PID.TID 0000.0001) %MON ke_max                       =   8.6273795424888E+02
(PID.TID 0000.0001) %MON ke_mean                      =   6.4674123727380E+01
(PID.TID 0000.0001) %MON ke_vol                       =   5.1537074390046E+19
(PID.TID 0000.0001) %MON vort_r_min                   =  -4.8320669271316E-05
(PID.TID 0000.0001) %MON vort_r_max                   =   5.4466818586126E-05
(PID.TID 0000.0001) %MON vort_a_mean                  =   1.1155751681254E-19
(PID.TID 0000.0001) %MON vort_a_sd                    =   8.6050574000096E-05
(PID.TID 0000.0001) %MON vort_p_mean                  =   1.1155751539814E-19
(PID.TID 0000.0001) %MON vort_p_sd                    =   8.6050735034137E-05
(PID.TID 0000.0001) %MON surfExpan_theta_mean         =   2.6267837224764E-03
(PID.TID 0000.0001) %MON surfExpan_salt_mean          =  -4.1192635006944E-06
(PID.TID 0000.0001) %MON surfExpan_Heat_mean          =   4.2809786975992E-01
(PID.TID 0000.0001) %MON En_Budget_T2PE_mean          =  -1.7345615312004E-01
(PID.TID 0000.0001) // =======================================================
(PID.TID 0000.0001) // End MONITOR dynamic field statistics
(PID.TID 0000.0001) // =======================================================
 Current Date     20040321  Current Time          800
 cg2d: Sum(rhs),rhsMax =   2.91038304567337E-11  3.23128398150537E+03
(PID.TID 0000.0001)      cg2d_init_res =   1.85525767470558E+04
(PID.TID 0000.0001)      cg2d_iters(min,last) =      -1       6
(PID.TID 0000.0001)      cg2d_last_res =   3.36218788426566E-10
(PID.TID 0000.0001) // =======================================================
(PID.TID 0000.0001) // Begin MONITOR dynamic field statistics
(PID.TID 0000.0001) // =======================================================
(PID.TID 0000.0001) %MON time_tsnumber                =                     4
(PID.TID 0000.0001) %MON time_secondsf                =   4.8000000000000E+02
(PID.TID 0000.0001) %MON dynstat_eta_max              =   6.6155027098140E+01
(PID.TID 0000.0001) %MON dynstat_eta_min              =  -6.5116901354275E+01
(PID.TID 0000.0001) %MON dynstat_eta_mean             =  -2.8810327663589E-15
(PID.TID 0000.0001) %MON dynstat_eta_sd               =   1.0464403951376E+01
(PID.TID 0000.0001) %MON dynstat_eta_del2             =   1.6518866135052E-01
(PID.TID 0000.0001) %MON dynstat_uvel_max             =   4.1612726407937E+01
(PID.TID 0000.0001) %MON dynstat_uvel_min             =  -3.6987839025421E+01
(PID.TID 0000.0001) %MON dynstat_uvel_mean            =   1.7015498766159E+00
(PID.TID 0000.0001) %MON dynstat_uvel_sd              =   7.8686256714593E+00
(PID.TID 0000.0001) %MON dynstat_uvel_del2            =   4.6098978911895E-03
(PID.TID 0000.0001) %MON dynstat_vvel_max             =   3.8219792939167E+01
(PID.TID 0000.0001) %MON dynstat_vvel_min             =  -3.3176189141363E+01
(PID.TID 0000.0001) %MON dynstat_vvel_mean            =   1.6750266745662E+00
(PID.TID 0000.0001) %MON dynstat_vvel_sd              =   7.8557314830956E+00
(PID.TID 0000.0001) %MON dynstat_vvel_del2            =   4.7324297052302E-03
(PID.TID 0000.0001) %MON dynstat_wvel_max             =   2.0114267746231E-01
(PID.TID 0000.0001) %MON dynstat_wvel_min             =  -1.9284080249385E-01
(PID.TID 0000.0001) %MON dynstat_wvel_mean            =  -1.2736661212904E-18
(PID.TID 0000.0001) %MON dynstat_wvel_sd              =   2.6428304904924E-02
(PID.TID 0000.0001) %MON dynstat_wvel_del2            =   1.0184609587535E-04
(PID.TID 0000.0001) %MON dynstat_theta_max            =   4.8625450590206E+02
(PID.TID 0000.0001) %MON dynstat_theta_min            =   2.6911778545399E+02
(PID.TID 0000.0001) %MON dynstat_theta_mean           =   3.2507289864532E+02
(PID.TID 0000.0001) %MON dynstat_theta_sd             =   4.7866179582833E+01
(PID.TID 0000.0001) %MON dynstat_theta_del2           =   1.3262091461354E-03
(PID.TID 0000.0001) %MON dynstat_salt_max             =   2.9088255551366E-02
(PID.TID 0000.0001) %MON dynstat_salt_min             =  -1.1716280336704E-09
(PID.TID 0000.0001) %MON dynstat_salt_mean            =   2.6644930629952E-03
(PID.TID 0000.0001) %MON dynstat_salt_sd              =   4.3955410232057E-03
(PID.TID 0000.0001) %MON dynstat_salt_del2            =   1.3338860253313E-06
(PID.TID 0000.0001) %MON advcfl_uvel_max              =   3.1643440782022E-02
(PID.TID 0000.0001) %MON advcfl_vvel_max              =   3.5291531874681E-02
(PID.TID 0000.0001) %MON advcfl_wvel_max              =   4.7758451316733E-03
(PID.TID 0000.0001) %MON advcfl_W_hf_max              =   4.7757169981646E-03
(PID.TID 0000.0001) %MON am_eta_mean                  =   1.1337291719693E+07
(PID.TID 0000.0001) %MON am_uZo_mean                  =   2.9973379342393E+11
(PID.TID 0000.0001) %MON am_tot_mean                  =   2.9974513071565E+11
(PID.TID 0000.0001) %MON pe_b_mean                    =   4.4099448212709E-04
(PID.TID 0000.0001) %MON ke_max                       =   8.6174469747377E+02
(PID.TID 0000.0001) %MON ke_mean                      =   6.4664386725317E+01
(PID.TID 0000.0001) %MON ke_vol                       =   5.1537074390047E+19
(PID.TID 0000.0001) %MON vort_r_min                   =  -4.8313089212396E-05
(PID.TID 0000.0001) %MON vort_r_max                   =   5.4491099140281E-05
(PID.TID 0000.0001) %MON vort_a_mean                  =   3.6377451134524E-20
(PID.TID 0000.0001) %MON vort_a_sd                    =   8.6050232326562E-05
(PID.TID 0000.0001) %MON vort_p_mean                  =   3.8802613543592E-20
(PID.TID 0000.0001) %MON vort_p_sd                    =   8.6050583639342E-05
(PID.TID 0000.0001) %MON surfExpan_theta_mean         =   4.7659307985186E-03
(PID.TID 0000.0001) %MON surfExpan_salt_mean          =  -5.4682864493750E-06
(PID.TID 0000.0001) %MON surfExpan_Heat_mean          =   6.9405725988383E-01
(PID.TID 0000.0001) %MON En_Budget_T2PE_mean          =  -1.5565077583616E-01
(PID.TID 0000.0001) // =======================================================
(PID.TID 0000.0001) // End MONITOR dynamic field statistics
(PID.TID 0000.0001) // =======================================================
 Current Date     20040321  Current Time         1000
 cg2d: Sum(rhs),rhsMax =  -4.65661287307739E-10  4.73981212501552E+03
(PID.TID 0000.0001)      cg2d_init_res =   2.27513154210521E+04
(PID.TID 0000.0001)      cg2d_iters(min,last) =      -1       6
(PID.TID 0000.0001)      cg2d_last_res =   4.01676157472953E-10
(PID.TID 0000.0001) // =======================================================
(PID.TID 0000.0001) // Begin MONITOR dynamic field statistics
(PID.TID 0000.0001) // =======================================================
(PID.TID 0000.0001) %MON time_tsnumber                =                     5
(PID.TID 0000.0001) %MON time_secondsf                =   6.0000000000000E+02
(PID.TID 0000.0001) %MON dynstat_eta_max              =   7.8969913888525E+01
(PID.TID 0000.0001) %MON dynstat_eta_min              =  -9.5529190429195E+01
(PID.TID 0000.0001) %MON dynstat_eta_mean             =   3.9738382984260E-16
(PID.TID 0000.0001) %MON dynstat_eta_sd               =   1.5531985694599E+01
(PID.TID 0000.0001) %MON dynstat_eta_del2             =   2.2310681748267E-01
(PID.TID 0000.0001) %MON dynstat_uvel_max             =   4.1594175233427E+01
(PID.TID 0000.0001) %MON dynstat_uvel_min             =  -3.7017662128483E+01
(PID.TID 0000.0001) %MON dynstat_uvel_mean            =   1.7010410534229E+00
(PID.TID 0000.0001) %MON dynstat_uvel_sd              =   7.8666684808610E+00
(PID.TID 0000.0001) %MON dynstat_uvel_del2            =   4.6078797641760E-03
(PID.TID 0000.0001) %MON dynstat_vvel_max             =   3.8202597129636E+01
(PID.TID 0000.0001) %MON dynstat_vvel_min             =  -3.3104859392222E+01
(PID.TID 0000.0001) %MON dynstat_vvel_mean            =   1.6755903438437E+00
(PID.TID 0000.0001) %MON dynstat_vvel_sd              =   7.8564091156625E+00
(PID.TID 0000.0001) %MON dynstat_vvel_del2            =   4.7318691430794E-03
(PID.TID 0000.0001) %MON dynstat_wvel_max             =   2.0145545377015E-01
(PID.TID 0000.0001) %MON dynstat_wvel_min             =  -2.0398064711676E-01
(PID.TID 0000.0001) %MON dynstat_wvel_mean            =  -6.3683306064520E-19
(PID.TID 0000.0001) %MON dynstat_wvel_sd              =   2.6459760981184E-02
(PID.TID 0000.0001) %MON dynstat_wvel_del2            =   1.0230828748306E-04
(PID.TID 0000.0001) %MON dynstat_theta_max            =   4.8635363730927E+02
(PID.TID 0000.0001) %MON dynstat_theta_min            =   2.6911943891079E+02
(PID.TID 0000.0001) %MON dynstat_theta_mean           =   3.2508338553030E+02
(PID.TID 0000.0001) %MON dynstat_theta_sd             =   4.7904123486974E+01
(PID.TID 0000.0001) %MON dynstat_theta_del2           =   1.3255793561654E-03
(PID.TID 0000.0001) %MON dynstat_salt_max             =   2.8979611012724E-02
(PID.TID 0000.0001) %MON dynstat_salt_min             =  -1.5777484398624E-09
(PID.TID 0000.0001) %MON dynstat_salt_mean            =   2.6645514149125E-03
(PID.TID 0000.0001) %MON dynstat_salt_sd              =   4.3871473138443E-03
(PID.TID 0000.0001) %MON dynstat_salt_del2            =   1.3481392134366E-06
(PID.TID 0000.0001) %MON advcfl_uvel_max              =   3.1643616698110E-02
(PID.TID 0000.0001) %MON advcfl_vvel_max              =   3.5274608155589E-02
(PID.TID 0000.0001) %MON advcfl_wvel_max              =   4.8432286612606E-03
(PID.TID 0000.0001) %MON advcfl_W_hf_max              =   4.8441527228185E-03
(PID.TID 0000.0001) %MON am_eta_mean                  =   2.5170480910666E+07
(PID.TID 0000.0001) %MON am_uZo_mean                  =   2.9972146684096E+11
(PID.TID 0000.0001) %MON am_tot_mean                  =   2.9974663732187E+11
(PID.TID 0000.0001) %MON pe_b_mean                    =   9.7153427539580E-04
(PID.TID 0000.0001) %MON ke_max                       =   8.6078867983665E+02
(PID.TID 0000.0001) %MON ke_mean                      =   6.4654390434931E+01
(PID.TID 0000.0001) %MON ke_vol                       =   5.1537074390047E+19
(PID.TID 0000.0001) %MON vort_r_min                   =  -4.8304207208088E-05
(PID.TID 0000.0001) %MON vort_r_max                   =   5.4514882082279E-05
(PID.TID 0000.0001) %MON vort_a_mean                  =   1.2125817044841E-19
(PID.TID 0000.0001) %MON vort_a_sd                    =   8.6049834832598E-05
(PID.TID 0000.0001) %MON vort_p_mean                  =   1.1640783864153E-19
(PID.TID 0000.0001) %MON vort_p_sd                    =   8.6050448197400E-05
(PID.TID 0000.0001) %MON surfExpan_theta_mean         =   6.9842246753728E-03
(PID.TID 0000.0001) %MON surfExpan_salt_mean          =  -6.7820769851935E-06
(PID.TID 0000.0001) %MON surfExpan_Heat_mean          =   9.6576226371090E-01
(PID.TID 0000.0001) %MON En_Budget_T2PE_mean          =  -1.3815271465455E-01
(PID.TID 0000.0001) // =======================================================
(PID.TID 0000.0001) // End MONITOR dynamic field statistics
(PID.TID 0000.0001) // =======================================================
 Current Date     20040321  Current Time         1200
 cg2d: Sum(rhs),rhsMax =   4.65661287307739E-10  6.47318615102294E+03
(PID.TID 0000.0001)      cg2d_init_res =   2.66940209853271E+04
(PID.TID 0000.0001)      cg2d_iters(min,last) =      -1       7
(PID.TID 0000.0001)      cg2d_last_res =   2.51470100853450E-12
(PID.TID 0000.0001) // =======================================================
(PID.TID 0000.0001) // Begin MONITOR dynamic field statistics
(PID.TID 0000.0001) // =======================================================
(PID.TID 0000.0001) %MON time_tsnumber                =                     6
(PID.TID 0000.0001) %MON time_secondsf                =   7.2000000000000E+02
(PID.TID 0000.0001) %MON dynstat_eta_max              =   9.3962917096554E+01
(PID.TID 0000.0001) %MON dynstat_eta_min              =  -1.3049371318608E+02
(PID.TID 0000.0001) %MON dynstat_eta_mean             =   1.1921514895278E-15
(PID.TID 0000.0001) %MON dynstat_eta_sd               =   2.1478308447789E+01
(PID.TID 0000.0001) %MON dynstat_eta_del2             =   2.8441152307838E-01
(PID.TID 0000.0001) %MON dynstat_uvel_max             =   4.1576702962166E+01
(PID.TID 0000.0001) %MON dynstat_uvel_min             =  -3.7046213505437E+01
(PID.TID 0000.0001) %MON dynstat_uvel_mean            =   1.7005493517600E+00
(PID.TID 0000.0001) %MON dynstat_uvel_sd              =   7.8646844587578E+00
(PID.TID 0000.0001) %MON dynstat_uvel_del2            =   4.6061088559788E-03
(PID.TID 0000.0001) %MON dynstat_vvel_max             =   3.8184928315133E+01
(PID.TID 0000.0001) %MON dynstat_vvel_min             =  -3.3033126382708E+01
(PID.TID 0000.0001) %MON dynstat_vvel_mean            =   1.6761640264349E+00
(PID.TID 0000.0001) %MON dynstat_vvel_sd              =   7.8569868240779E+00
(PID.TID 0000.0001) %MON dynstat_vvel_del2            =   4.7313265412817E-03
(PID.TID 0000.0001) %MON dynstat_wvel_max             =   2.0205461581798E-01
(PID.TID 0000.0001) %MON dynstat_wvel_min             =  -2.1617562948293E-01
(PID.TID 0000.0001) %MON dynstat_wvel_mean            =   4.9354562200003E-18
(PID.TID 0000.0001) %MON dynstat_wvel_sd              =   2.6492634964738E-02
(PID.TID 0000.0001) %MON dynstat_wvel_del2            =   1.0326927910261E-04
(PID.TID 0000.0001) %MON dynstat_theta_max            =   4.8645252337357E+02
(PID.TID 0000.0001) %MON dynstat_theta_min            =   2.6912109303817E+02
(PID.TID 0000.0001) %MON dynstat_theta_mean           =   3.2516882108895E+02
(PID.TID 0000.0001) %MON dynstat_theta_sd             =   4.7950092849508E+01
(PID.TID 0000.0001) %MON dynstat_theta_del2           =   2.4236246626098E-03
(PID.TID 0000.0001) %MON dynstat_salt_max             =   2.8233958624205E-02
(PID.TID 0000.0001) %MON dynstat_salt_min             =  -1.9848638717978E-09
(PID.TID 0000.0001) %MON dynstat_salt_mean            =   2.6446747207162E-03
(PID.TID 0000.0001) %MON dynstat_salt_sd              =   4.3492341483395E-03
(PID.TID 0000.0001) %MON dynstat_salt_del2            =   1.7472826654683E-06
(PID.TID 0000.0001) %MON advcfl_uvel_max              =   3.1640933917071E-02
(PID.TID 0000.0001) %MON advcfl_vvel_max              =   3.5255748541782E-02
(PID.TID 0000.0001) %MON advcfl_wvel_max              =   5.1327810720125E-03
(PID.TID 0000.0001) %MON advcfl_W_hf_max              =   5.1334905781222E-03
(PID.TID 0000.0001) %MON am_eta_mean                  =   4.4012580337242E+07
(PID.TID 0000.0001) %MON am_uZo_mean                  =   2.9970413292630E+11
(PID.TID 0000.0001) %MON am_tot_mean                  =   2.9974814550663E+11
(PID.TID 0000.0001) %MON pe_b_mean                    =   1.8578229055780E-03
(PID.TID 0000.0001) %MON ke_max                       =   8.5988175479517E+02
(PID.TID 0000.0001) %MON ke_mean                      =   6.4643448780644E+01
(PID.TID 0000.0001) %MON ke_vol                       =   5.1537074390047E+19
(PID.TID 0000.0001) %MON vort_r_min                   =  -4.8294087315669E-05
(PID.TID 0000.0001) %MON vort_r_max                   =   5.4538169629043E-05
(PID.TID 0000.0001) %MON vort_a_mean                  =  -1.4308464112913E-19
(PID.TID 0000.0001) %MON vort_a_sd                    =   8.6049379301691E-05
(PID.TID 0000.0001) %MON vort_p_mean                  =  -1.4550979528679E-19
(PID.TID 0000.0001) %MON vort_p_sd                    =   8.6050325137558E-05
(PID.TID 0000.0001) %MON surfExpan_theta_mean         =   7.7022770541567E-03
(PID.TID 0000.0001) %MON surfExpan_salt_mean          =  -7.6347982896680E-06
(PID.TID 0000.0001) %MON surfExpan_Heat_mean          =   1.1359877098967E+00
(PID.TID 0000.0001) %MON En_Budget_T2PE_mean          =  -7.9975429829331E-02
(PID.TID 0000.0001) // =======================================================
(PID.TID 0000.0001) // End MONITOR dynamic field statistics
(PID.TID 0000.0001) // =======================================================
 Current Date     20040321  Current Time         1400
 cg2d: Sum(rhs),rhsMax =   1.62981450557709E-09  8.43429276558915E+03
(PID.TID 0000.0001)      cg2d_init_res =   3.10693936037651E+04
(PID.TID 0000.0001)      cg2d_iters(min,last) =      -1       7
(PID.TID 0000.0001)      cg2d_last_res =   3.75307509030386E-12
(PID.TID 0000.0001) // =======================================================
(PID.TID 0000.0001) // Begin MONITOR dynamic field statistics
(PID.TID 0000.0001) // =======================================================
(PID.TID 0000.0001) %MON time_tsnumber                =                     7
(PID.TID 0000.0001) %MON time_secondsf                =   8.4000000000000E+02
(PID.TID 0000.0001) %MON dynstat_eta_max              =   1.1064221604439E+02
(PID.TID 0000.0001) %MON dynstat_eta_min              =  -1.6936601519846E+02
(PID.TID 0000.0001) %MON dynstat_eta_mean             =  -1.7882272342917E-15
(PID.TID 0000.0001) %MON dynstat_eta_sd               =   2.8297593745465E+01
(PID.TID 0000.0001) %MON dynstat_eta_del2             =   3.5695595391812E-01
(PID.TID 0000.0001) %MON dynstat_uvel_max             =   4.1560586536731E+01
(PID.TID 0000.0001) %MON dynstat_uvel_min             =  -3.7073454861894E+01
(PID.TID 0000.0001) %MON dynstat_uvel_mean            =   1.7001018114239E+00
(PID.TID 0000.0001) %MON dynstat_uvel_sd              =   7.8627385470463E+00
(PID.TID 0000.0001) %MON dynstat_uvel_del2            =   4.6087397485460E-03
(PID.TID 0000.0001) %MON dynstat_vvel_max             =   3.8166975714521E+01
(PID.TID 0000.0001) %MON dynstat_vvel_min             =  -3.2961303297342E+01
(PID.TID 0000.0001) %MON dynstat_vvel_mean            =   1.6767168281982E+00
(PID.TID 0000.0001) %MON dynstat_vvel_sd              =   7.8576114551654E+00
(PID.TID 0000.0001) %MON dynstat_vvel_del2            =   4.7349631746527E-03
(PID.TID 0000.0001) %MON dynstat_wvel_max             =   2.1577606411764E-01
(PID.TID 0000.0001) %MON dynstat_wvel_min             =  -2.2968109402926E-01
(PID.TID 0000.0001) %MON dynstat_wvel_mean            =   3.1841653032260E-18
(PID.TID 0000.0001) %MON dynstat_wvel_sd              =   2.6936960202453E-02
(PID.TID 0000.0001) %MON dynstat_wvel_del2            =   1.1414569432058E-04
(PID.TID 0000.0001) %MON dynstat_theta_max            =   4.8655116017287E+02
(PID.TID 0000.0001) %MON dynstat_theta_min            =   2.6912277393914E+02
(PID.TID 0000.0001) %MON dynstat_theta_mean           =   3.2525433365167E+02
(PID.TID 0000.0001) %MON dynstat_theta_sd             =   4.8001615335810E+01
(PID.TID 0000.0001) %MON dynstat_theta_del2           =   4.2209373176724E-03
(PID.TID 0000.0001) %MON dynstat_salt_max             =   2.7505507109567E-02
(PID.TID 0000.0001) %MON dynstat_salt_min             =  -1.6108984542057E-03
(PID.TID 0000.0001) %MON dynstat_salt_mean            =   2.6247946098225E-03
(PID.TID 0000.0001) %MON dynstat_salt_sd              =   4.3244258944826E-03
(PID.TID 0000.0001) %MON dynstat_salt_del2            =   2.4566243986344E-06
(PID.TID 0000.0001) %MON advcfl_uvel_max              =   3.1639231104571E-02
(PID.TID 0000.0001) %MON advcfl_vvel_max              =   3.5235974528618E-02
(PID.TID 0000.0001) %MON advcfl_wvel_max              =   5.4534490074220E-03
(PID.TID 0000.0001) %MON advcfl_W_hf_max              =   5.4536787751578E-03
(PID.TID 0000.0001) %MON am_eta_mean                  =   6.7849889123461E+07
(PID.TID 0000.0001) %MON am_uZo_mean                  =   2.9968177488209E+11
(PID.TID 0000.0001) %MON am_tot_mean                  =   2.9974962477121E+11
(PID.TID 0000.0001) %MON pe_b_mean                    =   3.2248029163665E-03
(PID.TID 0000.0001) %MON ke_max                       =   8.5903321857598E+02
(PID.TID 0000.0001) %MON ke_mean                      =   6.4633220382491E+01
(PID.TID 0000.0001) %MON ke_vol                       =   5.1537074390047E+19
(PID.TID 0000.0001) %MON vort_r_min                   =  -4.8282802625109E-05
(PID.TID 0000.0001) %MON vort_r_max                   =   5.4560964392383E-05
(PID.TID 0000.0001) %MON vort_a_mean                  =   1.4550980453809E-19
(PID.TID 0000.0001) %MON vort_a_sd                    =   8.6048864529275E-05
(PID.TID 0000.0001) %MON vort_p_mean                  =   1.4308462859103E-19
(PID.TID 0000.0001) %MON vort_p_sd                    =   8.6050211703816E-05
(PID.TID 0000.0001) %MON surfExpan_theta_mean         =   5.3753667251640E-03
(PID.TID 0000.0001) %MON surfExpan_salt_mean          =  -8.0096645805665E-06
(PID.TID 0000.0001) %MON surfExpan_Heat_mean          =   1.0943533304770E+00
(PID.TID 0000.0001) %MON En_Budget_T2PE_mean          =   1.0580678151711E-01
(PID.TID 0000.0001) // =======================================================
(PID.TID 0000.0001) // End MONITOR dynamic field statistics
(PID.TID 0000.0001) // =======================================================
 Current Date     20040321  Current Time         1600
 cg2d: Sum(rhs),rhsMax =  -1.51339918375015E-09  1.06270128390672E+04
(PID.TID 0000.0001)      cg2d_init_res =   3.80122561232620E+04
(PID.TID 0000.0001)      cg2d_iters(min,last) =      -1       7
(PID.TID 0000.0001)      cg2d_last_res =   5.45518666907552E-12
(PID.TID 0000.0001) // =======================================================
(PID.TID 0000.0001) // Begin MONITOR dynamic field statistics
(PID.TID 0000.0001) // =======================================================
(PID.TID 0000.0001) %MON time_tsnumber                =                     8
(PID.TID 0000.0001) %MON time_secondsf                =   9.6000000000000E+02
(PID.TID 0000.0001) %MON dynstat_eta_max              =   1.2774028677188E+02
(PID.TID 0000.0001) %MON dynstat_eta_min              =  -2.1148390633440E+02
(PID.TID 0000.0001) %MON dynstat_eta_mean             =   1.1921514895278E-15
(PID.TID 0000.0001) %MON dynstat_eta_sd               =   3.6150315194176E+01
(PID.TID 0000.0001) %MON dynstat_eta_del2             =   4.7506530272534E-01
(PID.TID 0000.0001) %MON dynstat_uvel_max             =   4.1546034588875E+01
(PID.TID 0000.0001) %MON dynstat_uvel_min             =  -3.7099325456388E+01
(PID.TID 0000.0001) %MON dynstat_uvel_mean            =   1.6997041754835E+00
(PID.TID 0000.0001) %MON dynstat_uvel_sd              =   7.8609927925389E+00
(PID.TID 0000.0001) %MON dynstat_uvel_del2            =   4.6384919628905E-03
(PID.TID 0000.0001) %MON dynstat_vvel_max             =   3.8148926581958E+01
(PID.TID 0000.0001) %MON dynstat_vvel_min             =  -3.2953803616392E+01
(PID.TID 0000.0001) %MON dynstat_vvel_mean            =   1.6772532400513E+00
(PID.TID 0000.0001) %MON dynstat_vvel_sd              =   7.8584147713229E+00
(PID.TID 0000.0001) %MON dynstat_vvel_del2            =   4.7632605552191E-03
(PID.TID 0000.0001) %MON dynstat_wvel_max             =   2.3492018813233E-01
(PID.TID 0000.0001) %MON dynstat_wvel_min             =  -2.4443011078459E-01
(PID.TID 0000.0001) %MON dynstat_wvel_mean            =  -7.4827884625811E-18
(PID.TID 0000.0001) %MON dynstat_wvel_sd              =   2.9707834584840E-02
(PID.TID 0000.0001) %MON dynstat_wvel_del2            =   1.6997834814827E-04
(PID.TID 0000.0001) %MON dynstat_theta_max            =   4.8664954317922E+02
(PID.TID 0000.0001) %MON dynstat_theta_min            =   2.6912445531121E+02
(PID.TID 0000.0001) %MON dynstat_theta_mean           =   3.2533985371954E+02
(PID.TID 0000.0001) %MON dynstat_theta_sd             =   4.8058666510363E+01
(PID.TID 0000.0001) %MON dynstat_theta_del2           =   6.1046729050442E-03
(PID.TID 0000.0001) %MON dynstat_salt_max             =   2.6778405704735E-02
(PID.TID 0000.0001) %MON dynstat_salt_min             =  -6.2367864462343E-03
(PID.TID 0000.0001) %MON dynstat_salt_mean            =   2.6049130684365E-03
(PID.TID 0000.0001) %MON dynstat_salt_sd              =   4.3122395360983E-03
(PID.TID 0000.0001) %MON dynstat_salt_del2            =   3.2951886312940E-06
(PID.TID 0000.0001) %MON advcfl_uvel_max              =   3.1639755624160E-02
(PID.TID 0000.0001) %MON advcfl_vvel_max              =   3.5215793353707E-02
(PID.TID 0000.0001) %MON advcfl_wvel_max              =   5.8036433110706E-03
(PID.TID 0000.0001) %MON advcfl_W_hf_max              =   5.8031687773532E-03
(PID.TID 0000.0001) %MON am_eta_mean                  =   9.6384997363682E+07
(PID.TID 0000.0001) %MON am_uZo_mean                  =   2.9965472032739E+11
(PID.TID 0000.0001) %MON am_tot_mean                  =   2.9975110532475E+11
(PID.TID 0000.0001) %MON pe_b_mean                    =   5.2629390407205E-03
(PID.TID 0000.0001) %MON ke_max                       =   8.5824964183218E+02
(PID.TID 0000.0001) %MON ke_mean                      =   6.4626031576033E+01
(PID.TID 0000.0001) %MON ke_vol                       =   5.1537074390047E+19
(PID.TID 0000.0001) %MON vort_r_min                   =  -4.8270433094698E-05
(PID.TID 0000.0001) %MON vort_r_max                   =   5.4583269760368E-05
(PID.TID 0000.0001) %MON vort_a_mean                  =   2.7404346521341E-19
(PID.TID 0000.0001) %MON vort_a_sd                    =   8.6048294239633E-05
(PID.TID 0000.0001) %MON vort_p_mean                  =   2.7404343375443E-19
(PID.TID 0000.0001) %MON vort_p_sd                    =   8.6050108980255E-05
(PID.TID 0000.0001) %MON surfExpan_theta_mean         =  -3.2518298726419E-03
(PID.TID 0000.0001) %MON surfExpan_salt_mean          =  -7.0043129500166E-06
(PID.TID 0000.0001) %MON surfExpan_Heat_mean          =   6.1792716762703E-01
(PID.TID 0000.0001) %MON En_Budget_T2PE_mean          =   6.0596884079573E-01
(PID.TID 0000.0001) // =======================================================
(PID.TID 0000.0001) // End MONITOR dynamic field statistics
(PID.TID 0000.0001) // =======================================================
 Current Date     20040321  Current Time         1800
 cg2d: Sum(rhs),rhsMax =  -1.04773789644241E-09  1.29923903267882E+04
(PID.TID 0000.0001)      cg2d_init_res =   4.89940393653618E+04
(PID.TID 0000.0001)      cg2d_iters(min,last) =      -1       7
(PID.TID 0000.0001)      cg2d_last_res =   7.56768914434164E-12
(PID.TID 0000.0001) // =======================================================
(PID.TID 0000.0001) // Begin MONITOR dynamic field statistics
(PID.TID 0000.0001) // =======================================================
(PID.TID 0000.0001) %MON time_tsnumber                =                     9
(PID.TID 0000.0001) %MON time_secondsf                =   1.0800000000000E+03
(PID.TID 0000.0001) %MON dynstat_eta_max              =   1.4839564527744E+02
(PID.TID 0000.0001) %MON dynstat_eta_min              =  -2.5618718936472E+02
(PID.TID 0000.0001) %MON dynstat_eta_mean             =  -4.7686059581113E-15
(PID.TID 0000.0001) %MON dynstat_eta_sd               =   4.5494682047536E+01
(PID.TID 0000.0001) %MON dynstat_eta_del2             =   7.0239624159947E-01
(PID.TID 0000.0001) %MON dynstat_uvel_max             =   4.1533191266831E+01
(PID.TID 0000.0001) %MON dynstat_uvel_min             =  -3.7123745370578E+01
(PID.TID 0000.0001) %MON dynstat_uvel_mean            =   1.6993584390423E+00
(PID.TID 0000.0001) %MON dynstat_uvel_sd              =   7.8598232982433E+00
(PID.TID 0000.0001) %MON dynstat_uvel_del2            =   4.7343975898532E-03
(PID.TID 0000.0001) %MON dynstat_vvel_max             =   3.8130953300795E+01
(PID.TID 0000.0001) %MON dynstat_vvel_min             =  -3.2944272217282E+01
(PID.TID 0000.0001) %MON dynstat_vvel_mean            =   1.6777714198794E+00
(PID.TID 0000.0001) %MON dynstat_vvel_sd              =   7.8597221855790E+00
(PID.TID 0000.0001) %MON dynstat_vvel_del2            =   4.8512768531783E-03
(PID.TID 0000.0001) %MON dynstat_wvel_max             =   3.2907664013094E-01
(PID.TID 0000.0001) %MON dynstat_wvel_min             =  -3.6980380928862E-01
(PID.TID 0000.0001) %MON dynstat_wvel_mean            =  -1.5920826516130E-18
(PID.TID 0000.0001) %MON dynstat_wvel_sd              =   3.7193028907990E-02
(PID.TID 0000.0001) %MON dynstat_wvel_del2            =   2.8149807113602E-04
(PID.TID 0000.0001) %MON dynstat_theta_max            =   4.8674768643429E+02
(PID.TID 0000.0001) %MON dynstat_theta_min            =   2.6912614708582E+02
(PID.TID 0000.0001) %MON dynstat_theta_mean           =   3.2542552137671E+02
(PID.TID 0000.0001) %MON dynstat_theta_sd             =   4.8120652830164E+01
(PID.TID 0000.0001) %MON dynstat_theta_del2           =   7.9225917120242E-03
(PID.TID 0000.0001) %MON dynstat_salt_max             =   2.6058343225581E-02
(PID.TID 0000.0001) %MON dynstat_salt_min             =  -1.1592083101735E-02
(PID.TID 0000.0001) %MON dynstat_salt_mean            =   2.5850244704057E-03
(PID.TID 0000.0001) %MON dynstat_salt_sd              =   4.3004596359153E-03
(PID.TID 0000.0001) %MON dynstat_salt_del2            =   4.0168568505100E-06
(PID.TID 0000.0001) %MON advcfl_uvel_max              =   3.1641692650708E-02
(PID.TID 0000.0001) %MON advcfl_vvel_max              =   3.5195266232582E-02
(PID.TID 0000.0001) %MON advcfl_wvel_max              =   8.7804624286970E-03
(PID.TID 0000.0001) %MON advcfl_W_hf_max              =   8.7880229708137E-03
(PID.TID 0000.0001) %MON am_eta_mean                  =   1.2931867486017E+08
(PID.TID 0000.0001) %MON am_uZo_mean                  =   2.9962322435644E+11
(PID.TID 0000.0001) %MON am_tot_mean                  =   2.9975254303130E+11
(PID.TID 0000.0001) %MON pe_b_mean                    =   8.3353805375187E-03
(PID.TID 0000.0001) %MON ke_max                       =   8.5753501193741E+02
(PID.TID 0000.0001) %MON ke_mean                      =   6.4627395592384E+01
(PID.TID 0000.0001) %MON ke_vol                       =   5.1537074390047E+19
(PID.TID 0000.0001) %MON vort_r_min                   =  -4.8257062981240E-05
(PID.TID 0000.0001) %MON vort_r_max                   =   5.4605090087749E-05
(PID.TID 0000.0001) %MON vort_a_mean                  =  -1.4550980453809E-20
(PID.TID 0000.0001) %MON vort_a_sd                    =   8.6047666930444E-05
(PID.TID 0000.0001) %MON vort_p_mean                  =  -1.4550978344478E-20
(PID.TID 0000.0001) %MON vort_p_sd                    =   8.6050012682807E-05
(PID.TID 0000.0001) %MON surfExpan_theta_mean         =  -2.0637582442090E-02
(PID.TID 0000.0001) %MON surfExpan_salt_mean          =  -3.9103612655789E-06
(PID.TID 0000.0001) %MON surfExpan_Heat_mean          =  -4.6160397414332E-01
(PID.TID 0000.0001) %MON En_Budget_T2PE_mean          =   1.5936836996261E+00
(PID.TID 0000.0001) // =======================================================
(PID.TID 0000.0001) // End MONITOR dynamic field statistics
(PID.TID 0000.0001) // =======================================================
 Current Date     20040321  Current Time         2000
 cg2d: Sum(rhs),rhsMax =   9.31322574615479E-10  1.85379135589934E+04
(PID.TID 0000.0001)      cg2d_init_res =   6.36333344584494E+04
(PID.TID 0000.0001)      cg2d_iters(min,last) =      -1       7
(PID.TID 0000.0001)      cg2d_last_res =   1.00221262581968E-11
(PID.TID 0000.0001) // =======================================================
(PID.TID 0000.0001) // Begin MONITOR dynamic field statistics
(PID.TID 0000.0001) // =======================================================
(PID.TID 0000.0001) %MON time_tsnumber                =                    10
(PID.TID 0000.0001) %MON time_secondsf                =   1.2000000000000E+03
(PID.TID 0000.0001) %MON dynstat_eta_max              =   2.0756627759877E+02
(PID.TID 0000.0001) %MON dynstat_eta_min              =  -3.0283812425214E+02
(PID.TID 0000.0001) %MON dynstat_eta_mean             =   3.5764544685834E-15
(PID.TID 0000.0001) %MON dynstat_eta_sd               =   5.7016088799610E+01
(PID.TID 0000.0001) %MON dynstat_eta_del2             =   1.0849327321079E+00
(PID.TID 0000.0001) %MON dynstat_uvel_max             =   4.1522136783090E+01
(PID.TID 0000.0001) %MON dynstat_uvel_min             =  -3.7146617407709E+01
(PID.TID 0000.0001) %MON dynstat_uvel_mean            =   1.6990696078084E+00
(PID.TID 0000.0001) %MON dynstat_uvel_sd              =   7.8597117556393E+00
(PID.TID 0000.0001) %MON dynstat_uvel_del2            =   4.9417163390399E-03
(PID.TID 0000.0001) %MON dynstat_vvel_max             =   3.8113203764324E+01
(PID.TID 0000.0001) %MON dynstat_vvel_min             =  -3.2931365418833E+01
(PID.TID 0000.0001) %MON dynstat_vvel_mean            =   1.6782741668667E+00
(PID.TID 0000.0001) %MON dynstat_vvel_sd              =   7.8619455909060E+00
(PID.TID 0000.0001) %MON dynstat_vvel_del2            =   5.0400052784333E-03
(PID.TID 0000.0001) %MON dynstat_wvel_max             =   5.5494509566710E-01
(PID.TID 0000.0001) %MON dynstat_wvel_min             =  -6.0341164442749E-01
(PID.TID 0000.0001) %MON dynstat_wvel_mean            =   6.5275388716133E-18
(PID.TID 0000.0001) %MON dynstat_wvel_sd              =   5.0249119387675E-02
(PID.TID 0000.0001) %MON dynstat_wvel_del2            =   4.3927618246700E-04
(PID.TID 0000.0001) %MON dynstat_theta_max            =   4.8684557348507E+02
(PID.TID 0000.0001) %MON dynstat_theta_min            =   2.6912783895688E+02
(PID.TID 0000.0001) %MON dynstat_theta_mean           =   3.2551119706205E+02
(PID.TID 0000.0001) %MON dynstat_theta_sd             =   4.8187889871532E+01
(PID.TID 0000.0001) %MON dynstat_theta_del2           =   9.7183132018284E-03
(PID.TID 0000.0001) %MON dynstat_salt_max             =   2.5883679566055E-02
(PID.TID 0000.0001) %MON dynstat_salt_min             =  -1.6938058104681E-02
(PID.TID 0000.0001) %MON dynstat_salt_mean            =   2.5651340999034E-03
(PID.TID 0000.0001) %MON dynstat_salt_sd              =   4.2984151978631E-03
(PID.TID 0000.0001) %MON dynstat_salt_del2            =   4.7740549395616E-06
(PID.TID 0000.0001) %MON advcfl_uvel_max              =   3.1643160338855E-02
(PID.TID 0000.0001) %MON advcfl_vvel_max              =   3.5174233698197E-02
(PID.TID 0000.0001) %MON advcfl_wvel_max              =   1.4327146286367E-02
(PID.TID 0000.0001) %MON advcfl_W_hf_max              =   1.4348803357944E-02
(PID.TID 0000.0001) %MON am_eta_mean                  =   1.6634898621932E+08
(PID.TID 0000.0001) %MON am_uZo_mean                  =   2.9958763297900E+11
(PID.TID 0000.0001) %MON am_tot_mean                  =   2.9975398196522E+11
(PID.TID 0000.0001) %MON pe_b_mean                    =   1.3091789313330E-02
(PID.TID 0000.0001) %MON ke_max                       =   8.5715036206327E+02
(PID.TID 0000.0001) %MON ke_mean                      =   6.4644349542554E+01
(PID.TID 0000.0001) %MON ke_vol                       =   5.1537074390047E+19
(PID.TID 0000.0001) %MON vort_r_min                   =  -4.8242778537865E-05
(PID.TID 0000.0001) %MON vort_r_max                   =   5.4626431069613E-05
(PID.TID 0000.0001) %MON vort_a_mean                  =   1.2125817044841E-19
(PID.TID 0000.0001) %MON vort_a_sd                    =   8.6046989834728E-05
(PID.TID 0000.0001) %MON vort_p_mean                  =   1.2125814885537E-19
(PID.TID 0000.0001) %MON vort_p_sd                    =   8.6049927112909E-05
(PID.TID 0000.0001) %MON surfExpan_theta_mean         =  -4.8232409204759E-02
(PID.TID 0000.0001) %MON surfExpan_salt_mean          =   1.7409588181825E-06
(PID.TID 0000.0001) %MON surfExpan_Heat_mean          =  -2.2459452878834E+00
(PID.TID 0000.0001) %MON En_Budget_T2PE_mean          =   3.2221653273559E+00
(PID.TID 0000.0001) // =======================================================
(PID.TID 0000.0001) // End MONITOR dynamic field statistics
(PID.TID 0000.0001) // =======================================================
 Current Date     20040321  Current Time         2200
 cg2d: Sum(rhs),rhsMax =   4.65661287307739E-10  2.82009755993454E+04
(PID.TID 0000.0001)      cg2d_init_res =   8.05658265849855E+04
(PID.TID 0000.0001)      cg2d_iters(min,last) =      -1       7
(PID.TID 0000.0001)      cg2d_last_res =   1.28246914542685E-11
(PID.TID 0000.0001) // =======================================================
(PID.TID 0000.0001) // Begin MONITOR dynamic field statistics
(PID.TID 0000.0001) // =======================================================
(PID.TID 0000.0001) %MON time_tsnumber                =                    11
(PID.TID 0000.0001) %MON time_secondsf                =   1.3200000000000E+03
(PID.TID 0000.0001) %MON dynstat_eta_max              =   3.2479381646357E+02
(PID.TID 0000.0001) %MON dynstat_eta_min              =  -3.7935805540845E+02
(PID.TID 0000.0001) %MON dynstat_eta_mean             =   4.7686059581113E-15
(PID.TID 0000.0001) %MON dynstat_eta_sd               =   7.1405930998318E+01
(PID.TID 0000.0001) %MON dynstat_eta_del2             =   1.6331500989960E+00
(PID.TID 0000.0001) %MON dynstat_uvel_max             =   4.1512894941179E+01
(PID.TID 0000.0001) %MON dynstat_uvel_min             =  -3.7167832214308E+01
(PID.TID 0000.0001) %MON dynstat_uvel_mean            =   1.6988399602465E+00
(PID.TID 0000.0001) %MON dynstat_uvel_sd              =   7.8612445451414E+00
(PID.TID 0000.0001) %MON dynstat_uvel_del2            =   5.2977428113313E-03
(PID.TID 0000.0001) %MON dynstat_vvel_max             =   3.8095788742058E+01
(PID.TID 0000.0001) %MON dynstat_vvel_min             =  -3.2915143030831E+01
(PID.TID 0000.0001) %MON dynstat_vvel_mean            =   1.6787595362832E+00
(PID.TID 0000.0001) %MON dynstat_vvel_sd              =   7.8655838896577E+00
(PID.TID 0000.0001) %MON dynstat_vvel_del2            =   5.3640493167039E-03
(PID.TID 0000.0001) %MON dynstat_wvel_max             =   8.3927012887424E-01
(PID.TID 0000.0001) %MON dynstat_wvel_min             =  -8.8757177717061E-01
(PID.TID 0000.0001) %MON dynstat_wvel_mean            =   1.0189328970323E-17
(PID.TID 0000.0001) %MON dynstat_wvel_sd              =   6.8328778308458E-02
(PID.TID 0000.0001) %MON dynstat_wvel_del2            =   6.3577401245952E-04
(PID.TID 0000.0001) %MON dynstat_theta_max            =   4.8694322456420E+02
(PID.TID 0000.0001) %MON dynstat_theta_min            =   2.6912953328669E+02
(PID.TID 0000.0001) %MON dynstat_theta_mean           =   3.2553903033832E+02
(PID.TID 0000.0001) %MON dynstat_theta_sd             =   4.8224528422033E+01
(PID.TID 0000.0001) %MON dynstat_theta_del2           =   9.5605460679754E-03
(PID.TID 0000.0001) %MON dynstat_salt_max             =   2.5860042678582E-02
(PID.TID 0000.0001) %MON dynstat_salt_min             =  -1.7042234269252E-02
(PID.TID 0000.0001) %MON dynstat_salt_mean            =   2.5600948901199E-03
(PID.TID 0000.0001) %MON dynstat_salt_sd              =   4.2239269773468E-03
(PID.TID 0000.0001) %MON dynstat_salt_del2            =   4.0069019207854E-06
(PID.TID 0000.0001) %MON advcfl_uvel_max              =   3.1642210365763E-02
(PID.TID 0000.0001) %MON advcfl_vvel_max              =   3.5152559200197E-02
(PID.TID 0000.0001) %MON advcfl_wvel_max              =   2.1074122133058E-02
(PID.TID 0000.0001) %MON advcfl_W_hf_max              =   2.1126244940541E-02
(PID.TID 0000.0001) %MON am_eta_mean                  =   2.0717248810139E+08
(PID.TID 0000.0001) %MON am_uZo_mean                  =   2.9954820413759E+11
(PID.TID 0000.0001) %MON am_tot_mean                  =   2.9975537662569E+11
(PID.TID 0000.0001) %MON pe_b_mean                    =   2.0533961103568E-02
(PID.TID 0000.0001) %MON ke_max                       =   8.5716706177215E+02
(PID.TID 0000.0001) %MON ke_mean                      =   6.4685433257340E+01
(PID.TID 0000.0001) %MON ke_vol                       =   5.1537074390047E+19
(PID.TID 0000.0001) %MON vort_r_min                   =  -4.8227665438679E-05
(PID.TID 0000.0001) %MON vort_r_max                   =   5.4647299918514E-05
(PID.TID 0000.0001) %MON vort_a_mean                  =  -7.5180065678016E-20
(PID.TID 0000.0001) %MON vort_a_sd                    =   8.6046257661155E-05
(PID.TID 0000.0001) %MON vort_p_mean                  =  -7.5180049579164E-20
(PID.TID 0000.0001) %MON vort_p_sd                    =   8.6049843965443E-05
(PID.TID 0000.0001) %MON surfExpan_theta_mean         =  -7.1905698492980E-02
(PID.TID 0000.0001) %MON surfExpan_salt_mean          =   6.4130968270166E-06
(PID.TID 0000.0001) %MON surfExpan_Heat_mean          =  -3.8122561765579E+00
(PID.TID 0000.0001) %MON En_Budget_T2PE_mean          =   4.7839573681811E+00
(PID.TID 0000.0001) // =======================================================
(PID.TID 0000.0001) // End MONITOR dynamic field statistics
(PID.TID 0000.0001) // =======================================================
 Current Date     20040321  Current Time         2400
 cg2d: Sum(rhs),rhsMax =  -1.62981450557709E-09  4.00216491841637E+04
(PID.TID 0000.0001)      cg2d_init_res =   9.44528130541775E+04
(PID.TID 0000.0001)      cg2d_iters(min,last) =      -1       7
(PID.TID 0000.0001)      cg2d_last_res =   1.58426309325421E-11
(PID.TID 0000.0001) // =======================================================
(PID.TID 0000.0001) // Begin MONITOR dynamic field statistics
(PID.TID 0000.0001) // =======================================================
(PID.TID 0000.0001) %MON time_tsnumber                =                    12
(PID.TID 0000.0001) %MON time_secondsf                =   1.4400000000000E+03
(PID.TID 0000.0001) %MON dynstat_eta_max              =   4.6833506321427E+02
(PID.TID 0000.0001) %MON dynstat_eta_min              =  -5.3860318037579E+02
(PID.TID 0000.0001) %MON dynstat_eta_mean             =   6.3581412774817E-15
(PID.TID 0000.0001) %MON dynstat_eta_sd               =   8.8638801249894E+01
(PID.TID 0000.0001) %MON dynstat_eta_del2             =   2.3013026423464E+00
(PID.TID 0000.0001) %MON dynstat_uvel_max             =   4.1505436750632E+01
(PID.TID 0000.0001) %MON dynstat_uvel_min             =  -3.7187271243804E+01
(PID.TID 0000.0001) %MON dynstat_uvel_mean            =   1.6986736358039E+00
(PID.TID 0000.0001) %MON dynstat_uvel_sd              =   7.8639812359438E+00
(PID.TID 0000.0001) %MON dynstat_uvel_del2            =   5.7276270149808E-03
(PID.TID 0000.0001) %MON dynstat_vvel_max             =   3.8078773551371E+01
(PID.TID 0000.0001) %MON dynstat_vvel_min             =  -3.2895697619839E+01
(PID.TID 0000.0001) %MON dynstat_vvel_mean            =   1.6792288018161E+00
(PID.TID 0000.0001) %MON dynstat_vvel_sd              =   7.8701909034368E+00
(PID.TID 0000.0001) %MON dynstat_vvel_del2            =   5.7533359026390E-03
(PID.TID 0000.0001) %MON dynstat_wvel_max             =   1.1379009825649E+00
(PID.TID 0000.0001) %MON dynstat_wvel_min             =  -1.1896952851578E+00
(PID.TID 0000.0001) %MON dynstat_wvel_mean            =  -3.1841653032260E-19
(PID.TID 0000.0001) %MON dynstat_wvel_sd              =   8.7329625669457E-02
(PID.TID 0000.0001) %MON dynstat_wvel_del2            =   8.3157445805300E-04
(PID.TID 0000.0001) %MON dynstat_theta_max            =   4.8704061765624E+02
(PID.TID 0000.0001) %MON dynstat_theta_min            =   2.6913122731018E+02
(PID.TID 0000.0001) %MON dynstat_theta_mean           =   3.2556684761896E+02
(PID.TID 0000.0001) %MON dynstat_theta_sd             =   4.8263705418836E+01
(PID.TID 0000.0001) %MON dynstat_theta_del2           =   9.6700754774637E-03
(PID.TID 0000.0001) %MON dynstat_salt_max             =   2.5834653250075E-02
(PID.TID 0000.0001) %MON dynstat_salt_min             =  -2.5789489868072E-02
(PID.TID 0000.0001) %MON dynstat_salt_mean            =   2.5550598080276E-03
(PID.TID 0000.0001) %MON dynstat_salt_sd              =   4.2114607613658E-03
(PID.TID 0000.0001) %MON dynstat_salt_del2            =   4.7294011332394E-06
(PID.TID 0000.0001) %MON advcfl_uvel_max              =   3.1637526405330E-02
(PID.TID 0000.0001) %MON advcfl_vvel_max              =   3.5130298019115E-02
(PID.TID 0000.0001) %MON advcfl_wvel_max              =   2.8247612627412E-02
(PID.TID 0000.0001) %MON advcfl_W_hf_max              =   2.8354026640166E-02
(PID.TID 0000.0001) %MON am_eta_mean                  =   2.5148320559452E+08
(PID.TID 0000.0001) %MON am_uZo_mean                  =   2.9950528945036E+11
(PID.TID 0000.0001) %MON am_tot_mean                  =   2.9975677265596E+11
(PID.TID 0000.0001) %MON pe_b_mean                    =   3.1641124623815E-02
(PID.TID 0000.0001) %MON ke_max                       =   8.5719129999065E+02
(PID.TID 0000.0001) %MON ke_mean                      =   6.4743703600146E+01
(PID.TID 0000.0001) %MON ke_vol                       =   5.1537074390047E+19
(PID.TID 0000.0001) %MON vort_r_min                   =  -4.8211805714812E-05
(PID.TID 0000.0001) %MON vort_r_max                   =   5.4667705373868E-05
(PID.TID 0000.0001) %MON vort_a_mean                  =   2.1826470680714E-20
(PID.TID 0000.0001) %MON vort_a_sd                    =   8.6045486350837E-05
(PID.TID 0000.0001) %MON vort_p_mean                  =   2.4251627949825E-20
(PID.TID 0000.0001) %MON vort_p_sd                    =   8.6049776070427E-05
(PID.TID 0000.0001) %MON surfExpan_theta_mean         =  -9.3167783125310E-02
(PID.TID 0000.0001) %MON surfExpan_salt_mean          =   1.0697188441050E-05
(PID.TID 0000.0001) %MON surfExpan_Heat_mean          =  -5.2406581881022E+00
(PID.TID 0000.0001) %MON En_Budget_T2PE_mean          =   6.3509742041121E+00
(PID.TID 0000.0001) // =======================================================
(PID.TID 0000.0001) // End MONITOR dynamic field statistics
(PID.TID 0000.0001) // =======================================================
 Current Date     20040321  Current Time         2600
 cg2d: Sum(rhs),rhsMax =  -2.32830643653870E-10  5.35796425873569E+04
(PID.TID 0000.0001)      cg2d_init_res =   1.04495689771224E+05
(PID.TID 0000.0001)      cg2d_iters(min,last) =      -1       7
(PID.TID 0000.0001)      cg2d_last_res =   1.89153196504767E-11
(PID.TID 0000.0001) // =======================================================
(PID.TID 0000.0001) // Begin MONITOR dynamic field statistics
(PID.TID 0000.0001) // =======================================================
(PID.TID 0000.0001) %MON time_tsnumber                =                    13
(PID.TID 0000.0001) %MON time_secondsf                =   1.5600000000000E+03
(PID.TID 0000.0001) %MON dynstat_eta_max              =   6.3189187528336E+02
(PID.TID 0000.0001) %MON dynstat_eta_min              =  -7.2152362481136E+02
(PID.TID 0000.0001) %MON dynstat_eta_mean             =  -5.5633736177965E-15
(PID.TID 0000.0001) %MON dynstat_eta_sd               =   1.0820832344705E+02
(PID.TID 0000.0001) %MON dynstat_eta_del2             =   3.0379699037098E+00
(PID.TID 0000.0001) %MON dynstat_uvel_max             =   4.1499689618077E+01
(PID.TID 0000.0001) %MON dynstat_uvel_min             =  -3.7204812896373E+01
(PID.TID 0000.0001) %MON dynstat_uvel_mean            =   1.6985713208057E+00
(PID.TID 0000.0001) %MON dynstat_uvel_sd              =   7.8678005949496E+00
(PID.TID 0000.0001) %MON dynstat_uvel_del2            =   6.1993401599980E-03
(PID.TID 0000.0001) %MON dynstat_vvel_max             =   3.8062169223371E+01
(PID.TID 0000.0001) %MON dynstat_vvel_min             =  -3.2873150214320E+01
(PID.TID 0000.0001) %MON dynstat_vvel_mean            =   1.6796768206839E+00
(PID.TID 0000.0001) %MON dynstat_vvel_sd              =   7.8756457305851E+00
(PID.TID 0000.0001) %MON dynstat_vvel_del2            =   6.1782969935503E-03
(PID.TID 0000.0001) %MON dynstat_wvel_max             =   1.4481474557392E+00
(PID.TID 0000.0001) %MON dynstat_wvel_min             =  -1.5071222006082E+00
(PID.TID 0000.0001) %MON dynstat_wvel_mean            =   5.2538727503229E-18
(PID.TID 0000.0001) %MON dynstat_wvel_sd              =   1.0662515130338E-01
(PID.TID 0000.0001) %MON dynstat_wvel_del2            =   1.0244790578290E-03
(PID.TID 0000.0001) %MON dynstat_theta_max            =   4.8713777931450E+02
(PID.TID 0000.0001) %MON dynstat_theta_min            =   2.6913292030900E+02
(PID.TID 0000.0001) %MON dynstat_theta_mean           =   3.2559454939426E+02
(PID.TID 0000.0001) %MON dynstat_theta_sd             =   4.8304356791624E+01
(PID.TID 0000.0001) %MON dynstat_theta_del2           =   9.8978977114467E-03
(PID.TID 0000.0001) %MON dynstat_salt_max             =   2.6276671304584E-02
(PID.TID 0000.0001) %MON dynstat_salt_min             =  -3.5852204144389E-02
(PID.TID 0000.0001) %MON dynstat_salt_mean            =   2.5500218563393E-03
(PID.TID 0000.0001) %MON dynstat_salt_sd              =   4.2351192726579E-03
(PID.TID 0000.0001) %MON dynstat_salt_del2            =   5.9703924415570E-06
(PID.TID 0000.0001) %MON advcfl_uvel_max              =   3.1628692149770E-02
(PID.TID 0000.0001) %MON advcfl_vvel_max              =   3.5107740352051E-02
(PID.TID 0000.0001) %MON advcfl_wvel_max              =   3.5784460639688E-02
(PID.TID 0000.0001) %MON advcfl_W_hf_max              =   3.5976159033765E-02
(PID.TID 0000.0001) %MON am_eta_mean                  =   2.9918417326399E+08
(PID.TID 0000.0001) %MON am_uZo_mean                  =   2.9945894116633E+11
(PID.TID 0000.0001) %MON am_tot_mean                  =   2.9975812533959E+11
(PID.TID 0000.0001) %MON pe_b_mean                    =   4.7154755753706E-02
(PID.TID 0000.0001) %MON ke_max                       =   8.5722789570216E+02
(PID.TID 0000.0001) %MON ke_mean                      =   6.4817270285870E+01
(PID.TID 0000.0001) %MON ke_vol                       =   5.1537074390047E+19
(PID.TID 0000.0001) %MON vort_r_min                   =  -4.8195273750097E-05
(PID.TID 0000.0001) %MON vort_r_max                   =   5.4687657846495E-05
(PID.TID 0000.0001) %MON vort_a_mean                  =   0.0000000000000E+00
(PID.TID 0000.0001) %MON vort_a_sd                    =   8.6044662612217E-05
(PID.TID 0000.0001) %MON vort_p_mean                  =  -4.8503253861664E-21
(PID.TID 0000.0001) %MON vort_p_sd                    =   8.6049707633303E-05
(PID.TID 0000.0001) %MON surfExpan_theta_mean         =  -1.1147676888005E-01
(PID.TID 0000.0001) %MON surfExpan_salt_mean          =   1.4439958649740E-05
(PID.TID 0000.0001) %MON surfExpan_Heat_mean          =  -6.4931689291113E+00
(PID.TID 0000.0001) %MON En_Budget_T2PE_mean          =   7.9048601684888E+00
(PID.TID 0000.0001) // =======================================================
(PID.TID 0000.0001) // End MONITOR dynamic field statistics
(PID.TID 0000.0001) // =======================================================
 Current Date     20040321  Current Time         2800
 cg2d: Sum(rhs),rhsMax =  -1.39698386192322E-09  6.83612455399522E+04
(PID.TID 0000.0001)      cg2d_init_res =   1.10652135744313E+05
(PID.TID 0000.0001)      cg2d_iters(min,last) =      -1       7
(PID.TID 0000.0001)      cg2d_last_res =   2.18503343552747E-11
(PID.TID 0000.0001) // =======================================================
(PID.TID 0000.0001) // Begin MONITOR dynamic field statistics
(PID.TID 0000.0001) // =======================================================
(PID.TID 0000.0001) %MON time_tsnumber                =                    14
(PID.TID 0000.0001) %MON time_secondsf                =   1.6800000000000E+03
(PID.TID 0000.0001) %MON dynstat_eta_max              =   8.0782357049422E+02
(PID.TID 0000.0001) %MON dynstat_eta_min              =  -9.2124730500017E+02
(PID.TID 0000.0001) %MON dynstat_eta_mean             =   3.9738382984260E-15
(PID.TID 0000.0001) %MON dynstat_eta_sd               =   1.2937627080081E+02
(PID.TID 0000.0001) %MON dynstat_eta_del2             =   3.7943647766620E+00
(PID.TID 0000.0001) %MON dynstat_uvel_max             =   4.1495542514793E+01
(PID.TID 0000.0001) %MON dynstat_uvel_min             =  -3.7220335947412E+01
(PID.TID 0000.0001) %MON dynstat_uvel_mean            =   1.6985363292243E+00
(PID.TID 0000.0001) %MON dynstat_uvel_sd              =   7.8726116493968E+00
(PID.TID 0000.0001) %MON dynstat_uvel_del2            =   6.6914731986399E-03
(PID.TID 0000.0001) %MON dynstat_vvel_max             =   3.8045929123136E+01
(PID.TID 0000.0001) %MON dynstat_vvel_min             =  -3.2847646025598E+01
(PID.TID 0000.0001) %MON dynstat_vvel_mean            =   1.6801035506746E+00
(PID.TID 0000.0001) %MON dynstat_vvel_sd              =   7.8818645017077E+00
(PID.TID 0000.0001) %MON dynstat_vvel_del2            =   6.6194552700577E-03
(PID.TID 0000.0001) %MON dynstat_wvel_max             =   1.7668343642901E+00
(PID.TID 0000.0001) %MON dynstat_wvel_min             =  -1.8389346760098E+00
(PID.TID 0000.0001) %MON dynstat_wvel_mean            =   4.9354562200003E-18
(PID.TID 0000.0001) %MON dynstat_wvel_sd              =   1.2590799453826E-01
(PID.TID 0000.0001) %MON dynstat_wvel_del2            =   1.2131074076558E-03
(PID.TID 0000.0001) %MON dynstat_theta_max            =   4.8723468226219E+02
(PID.TID 0000.0001) %MON dynstat_theta_min            =   2.6913461260593E+02
(PID.TID 0000.0001) %MON dynstat_theta_mean           =   3.2562223919870E+02
(PID.TID 0000.0001) %MON dynstat_theta_sd             =   4.8346097157875E+01
(PID.TID 0000.0001) %MON dynstat_theta_del2           =   1.0230214543721E-02
(PID.TID 0000.0001) %MON dynstat_salt_max             =   3.9883187214255E-02
(PID.TID 0000.0001) %MON dynstat_salt_min             =  -5.0791192078937E-02
(PID.TID 0000.0001) %MON dynstat_salt_mean            =   2.5449872739515E-03
(PID.TID 0000.0001) %MON dynstat_salt_sd              =   4.2961700215327E-03
(PID.TID 0000.0001) %MON dynstat_salt_del2            =   7.5659070388815E-06
(PID.TID 0000.0001) %MON advcfl_uvel_max              =   3.1616086875855E-02
(PID.TID 0000.0001) %MON advcfl_vvel_max              =   3.5085346727076E-02
(PID.TID 0000.0001) %MON advcfl_wvel_max              =   4.3662873193743E-02
(PID.TID 0000.0001) %MON advcfl_W_hf_max              =   4.3976785836445E-02
(PID.TID 0000.0001) %MON am_eta_mean                  =   3.5017520167984E+08
(PID.TID 0000.0001) %MON am_uZo_mean                  =   2.9940930591029E+11
(PID.TID 0000.0001) %MON am_tot_mean                  =   2.9975948111197E+11
(PID.TID 0000.0001) %MON pe_b_mean                    =   6.7408307136339E-02
(PID.TID 0000.0001) %MON ke_max                       =   8.5728122325985E+02
(PID.TID 0000.0001) %MON ke_mean                      =   6.4904787855772E+01
(PID.TID 0000.0001) %MON ke_vol                       =   5.1537074390047E+19
(PID.TID 0000.0001) %MON vort_r_min                   =  -4.8178139218597E-05
(PID.TID 0000.0001) %MON vort_r_max                   =   5.4707170264828E-05
(PID.TID 0000.0001) %MON vort_a_mean                  =  -1.6733627521881E-19
(PID.TID 0000.0001) %MON vort_a_sd                    =   8.6043811958020E-05
(PID.TID 0000.0001) %MON vort_p_mean                  =  -1.6733621829577E-19
(PID.TID 0000.0001) %MON vort_p_sd                    =   8.6049661609316E-05
(PID.TID 0000.0001) %MON surfExpan_theta_mean         =  -1.2665886006723E-01
(PID.TID 0000.0001) %MON surfExpan_salt_mean          =   1.7526469085696E-05
(PID.TID 0000.0001) %MON surfExpan_Heat_mean          =  -7.5509082211749E+00
(PID.TID 0000.0001) %MON En_Budget_T2PE_mean          =   9.4375164787487E+00
(PID.TID 0000.0001) // =======================================================
(PID.TID 0000.0001) // End MONITOR dynamic field statistics
(PID.TID 0000.0001) // =======================================================
 Current Date     20040321  Current Time         3000
 cg2d: Sum(rhs),rhsMax =   3.72529029846191E-09  8.37985991732638E+04
(PID.TID 0000.0001)      cg2d_init_res =   1.13372392385387E+05
(PID.TID 0000.0001)      cg2d_iters(min,last) =      -1       7
(PID.TID 0000.0001)      cg2d_last_res =   2.44777758105404E-11
(PID.TID 0000.0001) // =======================================================
(PID.TID 0000.0001) // Begin MONITOR dynamic field statistics
(PID.TID 0000.0001) // =======================================================
(PID.TID 0000.0001) %MON time_tsnumber                =                    15
(PID.TID 0000.0001) %MON time_secondsf                =   1.8000000000000E+03
(PID.TID 0000.0001) %MON dynstat_eta_max              =   9.8767534974080E+02
(PID.TID 0000.0001) %MON dynstat_eta_min              =  -1.1301516467607E+03
(PID.TID 0000.0001) %MON dynstat_eta_mean             =   3.1790706387408E-14
(PID.TID 0000.0001) %MON dynstat_eta_sd               =   1.5136821279484E+02
(PID.TID 0000.0001) %MON dynstat_eta_del2             =   4.5272498253843E+00
(PID.TID 0000.0001) %MON dynstat_uvel_max             =   4.1492855295595E+01
(PID.TID 0000.0001) %MON dynstat_uvel_min             =  -3.7233725771903E+01
(PID.TID 0000.0001) %MON dynstat_uvel_mean            =   1.6985694787234E+00
(PID.TID 0000.0001) %MON dynstat_uvel_sd              =   7.8783198176925E+00
(PID.TID 0000.0001) %MON dynstat_uvel_del2            =   7.1913772238796E-03
(PID.TID 0000.0001) %MON dynstat_vvel_max             =   3.8029946335670E+01
(PID.TID 0000.0001) %MON dynstat_vvel_min             =  -3.2819349397211E+01
(PID.TID 0000.0001) %MON dynstat_vvel_mean            =   1.6805057815488E+00
(PID.TID 0000.0001) %MON dynstat_vvel_sd              =   7.8887631490725E+00
(PID.TID 0000.0001) %MON dynstat_vvel_del2            =   7.0656110491011E-03
(PID.TID 0000.0001) %MON dynstat_wvel_max             =   2.0913622067003E+00
(PID.TID 0000.0001) %MON dynstat_wvel_min             =  -2.1827836700354E+00
(PID.TID 0000.0001) %MON dynstat_wvel_mean            =  -3.6617900987099E-18
(PID.TID 0000.0001) %MON dynstat_wvel_sd              =   1.4501548097810E-01
(PID.TID 0000.0001) %MON dynstat_wvel_del2            =   1.3967551909718E-03
(PID.TID 0000.0001) %MON dynstat_theta_max            =   4.8733135959489E+02
(PID.TID 0000.0001) %MON dynstat_theta_min            =   2.6913630223747E+02
(PID.TID 0000.0001) %MON dynstat_theta_mean           =   3.2564987107555E+02
(PID.TID 0000.0001) %MON dynstat_theta_sd             =   4.8389026173025E+01
(PID.TID 0000.0001) %MON dynstat_theta_del2           =   1.0671811935050E-02
(PID.TID 0000.0001) %MON dynstat_salt_max             =   5.3303008985627E-02
(PID.TID 0000.0001) %MON dynstat_salt_min             =  -6.5339041823346E-02
(PID.TID 0000.0001) %MON dynstat_salt_mean            =   2.5399497657310E-03
(PID.TID 0000.0001) %MON dynstat_salt_sd              =   4.3904693355837E-03
(PID.TID 0000.0001) %MON dynstat_salt_del2            =   9.2852291659823E-06
(PID.TID 0000.0001) %MON advcfl_uvel_max              =   3.1600552037598E-02
(PID.TID 0000.0001) %MON advcfl_vvel_max              =   3.5063617394225E-02
(PID.TID 0000.0001) %MON advcfl_wvel_max              =   5.1827075663682E-02
(PID.TID 0000.0001) %MON advcfl_W_hf_max              =   5.2303774429357E-02
(PID.TID 0000.0001) %MON am_eta_mean                  =   4.0435353428051E+08
(PID.TID 0000.0001) %MON am_uZo_mean                  =   2.9935644653174E+11
(PID.TID 0000.0001) %MON am_tot_mean                  =   2.9976080006602E+11
(PID.TID 0000.0001) %MON pe_b_mean                    =   9.2272763945027E-02
(PID.TID 0000.0001) %MON ke_max                       =   8.5735514960942E+02
(PID.TID 0000.0001) %MON ke_mean                      =   6.5004872493264E+01
(PID.TID 0000.0001) %MON ke_vol                       =   5.1537074390047E+19
(PID.TID 0000.0001) %MON vort_r_min                   =  -4.8160466285247E-05
(PID.TID 0000.0001) %MON vort_r_max                   =   5.4726257450058E-05
(PID.TID 0000.0001) %MON vort_a_mean                  =  -8.4880719313889E-20
(PID.TID 0000.0001) %MON vort_a_sd                    =   8.6042917490860E-05
(PID.TID 0000.0001) %MON vort_p_mean                  =  -8.2455523907508E-20
(PID.TID 0000.0001) %MON vort_p_sd                    =   8.6049618527045E-05
(PID.TID 0000.0001) %MON surfExpan_theta_mean         =  -1.3879830190051E-01
(PID.TID 0000.0001) %MON surfExpan_salt_mean          =   1.9895884615937E-05
(PID.TID 0000.0001) %MON surfExpan_Heat_mean          =  -8.4131386047086E+00
(PID.TID 0000.0001) %MON En_Budget_T2PE_mean          =   1.0941302969490E+01
(PID.TID 0000.0001) // =======================================================
(PID.TID 0000.0001) // End MONITOR dynamic field statistics
(PID.TID 0000.0001) // =======================================================
 Computing Diagnostic #    225  RADSWT       Counter:      15   Parms: SM      U1      
 Computing Diagnostic #    248  OSR          Counter:      15   Parms: SM      U1      
 Computing Diagnostic #    214  OLR          Counter:       1   Parms: SM      U1      
 Computing Diagnostic #    387  PLALBEDO     Counter:      15   Parms: SM      L1      
 Computing Diagnostic #    278  CLDFRC       Counter:       1   Parms: SM P    M1      
 Computing Diagnostic #    198  PREACC       Counter:       3   Parms: SM      L1      
 Computing Diagnostic #    199  PRECON       Counter:       3   Parms: SM      L1      
 Computing Diagnostic #    229  EVAP         Counter:       8   Parms: SM      L1      
 Computing Diagnostic #    182  RADSWG       Counter:      15   Parms: SM      L1      
 Computing Diagnostic #    358  ALBNIRDF     Counter:       1   Parms: SM      L1      
 Computing Diagnostic #    356  ALBVISDF     Counter:       1   Parms: SM      L1      
 Computing Diagnostic #    223  LWGDOWN      Counter:       8   Parms: SM      L1      
 Computing Diagnostic #    213  LWGUP        Counter:      15   Parms: SM      L1      
 Computing Diagnostic #    177  EFLUX        Counter:       8   Parms: SM      L1      
 Computing Diagnostic #    176  HFLUX        Counter:       8   Parms: SM      L1      
 Computing Diagnostic #    282  T2M          Counter:       8   Parms: SM      M1      
 Computing Diagnostic #    283  Q2M          Counter:       8   Parms: SM P    M1      
 Computing Diagnostic #    178  UFLUX        Counter:       8   Parms: UM      L1      
           Vector  Mate for  UFLUX        Diagnostic #    179  VFLUX    exists 
 Computing Diagnostic #    179  VFLUX        Counter:       8   Parms: VM      L1      
           Vector  Mate for  VFLUX        Diagnostic #    178  UFLUX    exists 
 Computing Diagnostic #    284  U10M         Counter:       8   Parms: UM      M1      
           Vector  Mate for  U10M         Diagnostic #    285  V10M     exists 
 Computing Diagnostic #    285  V10M         Counter:       8   Parms: VM      M1      
           Vector  Mate for  V10M         Diagnostic #    284  U10M     exists 
 Computing Diagnostic #    256  PS           Counter:      15   Parms: SM      L1      
 Computing Diagnostic #    249  OSRCLR       Counter:      15   Parms: SM      U1      
 Computing Diagnostic #    215  OLRCLR       Counter:       1   Parms: SM      U1      
 Computing Diagnostic #    259  SWGCLR       Counter:      15   Parms: SM      L1      
 Computing Diagnostic #    216  LWGCLR       Counter:      15   Parms: SM      L1      
 Computing Diagnostic #     93  RSURF        Counter:      15   Parms: SM      M1      
 Compute Stats, Diag. #    225  RADSWT    vol(   0 ): 7.648E+15  Parms: SM      U1      
 Compute Stats, Diag. #    248  OSR       vol(   0 ): 7.648E+15  Parms: SM      U1      
 Compute Stats, Diag. #    214  OLR       vol(   0 ): 5.099E+14  Parms: SM      U1      
 Compute Stats, Diag. #    387  PLALBEDO  vol(   0 ): 7.648E+15  Parms: SM      L1      
 Compute Stats, Diag. #    278  CLDFRC    vol(   0 ): 5.099E+14  Parms: SM P    M1      
 Compute Stats, Diag. #    198  PREACC    vol(   0 ): 1.530E+15  Parms: SM      L1      
 Compute Stats, Diag. #    199  PRECON    vol(   0 ): 1.530E+15  Parms: SM      L1      
 Compute Stats, Diag. #    229  EVAP      vol(   0 ): 4.079E+15  Parms: SM      L1      
 Compute Stats, Diag. #    182  RADSWG    vol(   0 ): 7.648E+15  Parms: SM      L1      
 Compute Stats, Diag. #    358  ALBNIRDF  vol(   0 ): 5.099E+14  Parms: SM      L1      
 Compute Stats, Diag. #    356  ALBVISDF  vol(   0 ): 5.099E+14  Parms: SM      L1      
 Compute Stats, Diag. #    223  LWGDOWN   vol(   0 ): 4.079E+15  Parms: SM      L1      
 Compute Stats, Diag. #    213  LWGUP     vol(   0 ): 7.648E+15  Parms: SM      L1      
 Compute Stats, Diag. #    177  EFLUX     vol(   0 ): 4.079E+15  Parms: SM      L1      
 Compute Stats, Diag. #    176  HFLUX     vol(   0 ): 4.079E+15  Parms: SM      L1      
 Compute Stats, Diag. #    282  T2M       vol(   0 ): 4.079E+15  Parms: SM      M1      
 Compute Stats, Diag. #    283  Q2M       vol(   0 ): 4.079E+15  Parms: SM P    M1      
 Compute Stats, Diag. #    178  UFLUX     vol(   0 ): 4.079E+15  Parms: UM      L1      
 Compute Stats, Diag. #    179  VFLUX     vol(   0 ): 4.079E+15  Parms: VM      L1      
 Compute Stats, Diag. #    284  U10M      vol(   0 ): 4.079E+15  Parms: UM      M1      
 Compute Stats, Diag. #    285  V10M      vol(   0 ): 4.079E+15  Parms: VM      M1      
 Compute Stats, Diag. #    256  PS        vol(   0 ): 7.648E+15  Parms: SM      L1      
 Compute Stats, Diag. #    249  OSRCLR    vol(   0 ): 7.648E+15  Parms: SM      U1      
 Compute Stats, Diag. #    215  OLRCLR    vol(   0 ): 5.099E+14  Parms: SM      U1      
 Compute Stats, Diag. #    259  SWGCLR    vol(   0 ): 7.648E+15  Parms: SM      L1      
 Compute Stats, Diag. #    216  LWGCLR    vol(   0 ): 7.648E+15  Parms: SM      L1      
(PID.TID 0000.0001) Did not write pickup because writePickupAtEnd = FALSE
(PID.TID 0000.0001)   Seconds in section "ALL                    [THE_MODEL_MAIN]":
(PID.TID 0000.0001)           User time:   96.060000000000002
(PID.TID 0000.0001)         System time:   1.6100000000000001
(PID.TID 0000.0001)     Wall clock time:   128.85534191131592
(PID.TID 0000.0001)          No. starts:           1
(PID.TID 0000.0001)           No. stops:           1
(PID.TID 0000.0001)   Seconds in section "INITIALISE_FIXED       [THE_MODEL_MAIN]":
(PID.TID 0000.0001)           User time:  0.71999999999999997
(PID.TID 0000.0001)         System time:  8.99999999999999967E-002
(PID.TID 0000.0001)     Wall clock time:   11.329758167266846
(PID.TID 0000.0001)          No. starts:           1
(PID.TID 0000.0001)           No. stops:           1
(PID.TID 0000.0001)   Seconds in section "THE_MAIN_LOOP          [THE_MODEL_MAIN]":
(PID.TID 0000.0001)           User time:   95.329999999999998
(PID.TID 0000.0001)         System time:   1.5200000000000000
(PID.TID 0000.0001)     Wall clock time:   117.52131915092468
(PID.TID 0000.0001)          No. starts:           1
(PID.TID 0000.0001)           No. stops:           1
(PID.TID 0000.0001)   Seconds in section "INITIALISE_VARIA    [THE_MAIN_LOOP]":
(PID.TID 0000.0001)           User time:   1.1400000000000001
(PID.TID 0000.0001)         System time:  0.16000000000000000
(PID.TID 0000.0001)     Wall clock time:   4.5432891845703125
(PID.TID 0000.0001)          No. starts:           1
(PID.TID 0000.0001)           No. stops:           1
(PID.TID 0000.0001)   Seconds in section "GRIDALT_UPDATE  [INITIALISE_VARIA]":
(PID.TID 0000.0001)           User time:   0.0000000000000000
(PID.TID 0000.0001)         System time:   0.0000000000000000
(PID.TID 0000.0001)     Wall clock time:  8.46791267395019531E-003
(PID.TID 0000.0001)          No. starts:           1
(PID.TID 0000.0001)           No. stops:           1
(PID.TID 0000.0001)   Seconds in section "MAIN LOOP           [THE_MAIN_LOOP]":
(PID.TID 0000.0001)           User time:   94.189999999999998
(PID.TID 0000.0001)         System time:   1.3600000000000001
(PID.TID 0000.0001)     Wall clock time:   112.97798800468445
(PID.TID 0000.0001)          No. starts:           1
(PID.TID 0000.0001)           No. stops:           1
(PID.TID 0000.0001)   Seconds in section "MAIN_DO_LOOP        [THE_MAIN_LOOP]":
(PID.TID 0000.0001)           User time:   94.190000000000055
(PID.TID 0000.0001)         System time:   1.3600000000000003
(PID.TID 0000.0001)     Wall clock time:   112.97783589363098
(PID.TID 0000.0001)          No. starts:          15
(PID.TID 0000.0001)           No. stops:          15
(PID.TID 0000.0001)   Seconds in section "FORWARD_STEP        [MAIN_DO_LOOP]":
(PID.TID 0000.0001)           User time:   94.190000000000055
(PID.TID 0000.0001)         System time:   1.3600000000000003
(PID.TID 0000.0001)     Wall clock time:   112.97754907608032
(PID.TID 0000.0001)          No. starts:          15
(PID.TID 0000.0001)           No. stops:          15
(PID.TID 0000.0001)   Seconds in section "DO_STATEVARS_DIAGS  [FORWARD_STEP]":
(PID.TID 0000.0001)           User time:  1.99999999999960210E-002
(PID.TID 0000.0001)         System time:   0.0000000000000000
(PID.TID 0000.0001)     Wall clock time:  1.99983119964599609E-002
(PID.TID 0000.0001)          No. starts:          45
(PID.TID 0000.0001)           No. stops:          45
(PID.TID 0000.0001)   Seconds in section "LOAD_FIELDS_DRIVER  [FORWARD_STEP]":
(PID.TID 0000.0001)           User time:   0.0000000000000000
(PID.TID 0000.0001)         System time:   0.0000000000000000
(PID.TID 0000.0001)     Wall clock time:  4.27484512329101563E-004
(PID.TID 0000.0001)          No. starts:          15
(PID.TID 0000.0001)           No. stops:          15
(PID.TID 0000.0001)   Seconds in section "EXTERNAL_FLDS_LOAD [LOAD_FLDS_DRIVER]":
(PID.TID 0000.0001)           User time:   0.0000000000000000
(PID.TID 0000.0001)         System time:   0.0000000000000000
(PID.TID 0000.0001)     Wall clock time:  1.46389007568359375E-004
(PID.TID 0000.0001)          No. starts:          15
(PID.TID 0000.0001)           No. stops:          15
(PID.TID 0000.0001)   Seconds in section "DO_ATMOSPHERIC_PHYS [FORWARD_STEP]":
(PID.TID 0000.0001)           User time:   58.469999999999999
(PID.TID 0000.0001)         System time:   1.2299999999999995
(PID.TID 0000.0001)     Wall clock time:   59.836501836776733
(PID.TID 0000.0001)          No. starts:          15
(PID.TID 0000.0001)           No. stops:          15
(PID.TID 0000.0001)   Seconds in section "FIZHI          [DO_ATMOSPHERIC_PHYS]":
(PID.TID 0000.0001)           User time:   58.469999999999999
(PID.TID 0000.0001)         System time:   1.2299999999999995
(PID.TID 0000.0001)     Wall clock time:   59.836181879043579
(PID.TID 0000.0001)          No. starts:          15
(PID.TID 0000.0001)           No. stops:          15
(PID.TID 0000.0001)   Seconds in section "DO_FIZHI          [FIZHI_WRAPPER]":
(PID.TID 0000.0001)           User time:   55.089999999999989
(PID.TID 0000.0001)         System time:   1.2299999999999995
(PID.TID 0000.0001)     Wall clock time:   56.457269906997681
(PID.TID 0000.0001)          No. starts:          15
(PID.TID 0000.0001)           No. stops:          15
(PID.TID 0000.0001)   Seconds in section "PHYS2DYN          [FIZHI_WRAPPER]":
(PID.TID 0000.0001)           User time:   1.4899999999999523
(PID.TID 0000.0001)         System time:   0.0000000000000000
(PID.TID 0000.0001)     Wall clock time:   1.4872093200683594
(PID.TID 0000.0001)          No. starts:          15
(PID.TID 0000.0001)           No. stops:          15
(PID.TID 0000.0001)   Seconds in section "ATOC              [FIZHI_WRAPPER]":
(PID.TID 0000.0001)           User time:  0.56000000000003070
(PID.TID 0000.0001)         System time:   0.0000000000000000
(PID.TID 0000.0001)     Wall clock time:  0.55142617225646973
(PID.TID 0000.0001)          No. starts:          15
(PID.TID 0000.0001)           No. stops:          15
(PID.TID 0000.0001)   Seconds in section "EXCHANGES         [FIZHI_WRAPPER]":
(PID.TID 0000.0001)           User time:  0.17999999999999261
(PID.TID 0000.0001)         System time:   0.0000000000000000
(PID.TID 0000.0001)     Wall clock time:  0.17910122871398926
(PID.TID 0000.0001)          No. starts:          15
(PID.TID 0000.0001)           No. stops:          15
(PID.TID 0000.0001)   Seconds in section "DO_OCEANIC_PHYS     [FORWARD_STEP]":
(PID.TID 0000.0001)           User time:   0.0000000000000000
(PID.TID 0000.0001)         System time:   0.0000000000000000
(PID.TID 0000.0001)     Wall clock time:  2.65383720397949219E-003
(PID.TID 0000.0001)          No. starts:          15
(PID.TID 0000.0001)           No. stops:          15
(PID.TID 0000.0001)   Seconds in section "DYNAMICS            [FORWARD_STEP]":
(PID.TID 0000.0001)           User time:   6.4900000000000091
(PID.TID 0000.0001)         System time:   0.0000000000000000
(PID.TID 0000.0001)     Wall clock time:   6.4837255477905273
(PID.TID 0000.0001)          No. starts:          15
(PID.TID 0000.0001)           No. stops:          15
(PID.TID 0000.0001)   Seconds in section "UPDATE_R_STAR       [FORWARD_STEP]":
(PID.TID 0000.0001)           User time:  0.47999999999998977
(PID.TID 0000.0001)         System time:   0.0000000000000000
(PID.TID 0000.0001)     Wall clock time:  0.48000741004943848
(PID.TID 0000.0001)          No. starts:          15
(PID.TID 0000.0001)           No. stops:          15
(PID.TID 0000.0001)   Seconds in section "UPDATE_CG2D         [FORWARD_STEP]":
(PID.TID 0000.0001)           User time:  0.18999999999999773
(PID.TID 0000.0001)         System time:   0.0000000000000000
(PID.TID 0000.0001)     Wall clock time:  0.22771930694580078
(PID.TID 0000.0001)          No. starts:          15
(PID.TID 0000.0001)           No. stops:          15
(PID.TID 0000.0001)   Seconds in section "SOLVE_FOR_PRESSURE  [FORWARD_STEP]":
(PID.TID 0000.0001)           User time:  0.63999999999998636
(PID.TID 0000.0001)         System time:   0.0000000000000000
(PID.TID 0000.0001)     Wall clock time:  0.61672997474670410
(PID.TID 0000.0001)          No. starts:          15
(PID.TID 0000.0001)           No. stops:          15
(PID.TID 0000.0001)   Seconds in section "MOM_CORRECTION_STEP [FORWARD_STEP]":
(PID.TID 0000.0001)           User time:   6.2299999999999898
(PID.TID 0000.0001)         System time:   0.0000000000000000
(PID.TID 0000.0001)     Wall clock time:   6.2476212978363037
(PID.TID 0000.0001)          No. starts:          15
(PID.TID 0000.0001)           No. stops:          15
(PID.TID 0000.0001)   Seconds in section "SHAP_FILT_UV       [MOM_CORR_STEP]":
(PID.TID 0000.0001)           User time:   5.9999999999999858
(PID.TID 0000.0001)         System time:   0.0000000000000000
(PID.TID 0000.0001)     Wall clock time:   6.0360345840454102
(PID.TID 0000.0001)          No. starts:          15
(PID.TID 0000.0001)           No. stops:          15
(PID.TID 0000.0001)   Seconds in section "INTEGR_CONTINUITY   [FORWARD_STEP]":
(PID.TID 0000.0001)           User time:  0.67999999999999261
(PID.TID 0000.0001)         System time:   0.0000000000000000
(PID.TID 0000.0001)     Wall clock time:  0.68935990333557129
(PID.TID 0000.0001)          No. starts:          15
(PID.TID 0000.0001)           No. stops:          15
(PID.TID 0000.0001)   Seconds in section "CALC_R_STAR         [FORWARD_STEP]":
(PID.TID 0000.0001)           User time:  7.00000000000216005E-002
(PID.TID 0000.0001)         System time:   0.0000000000000000
(PID.TID 0000.0001)     Wall clock time:  7.40640163421630859E-002
(PID.TID 0000.0001)          No. starts:          15
(PID.TID 0000.0001)           No. stops:          15
(PID.TID 0000.0001)   Seconds in section "BLOCKING_EXCHANGES  [FORWARD_STEP]":
(PID.TID 0000.0001)           User time:  0.22999999999997556
(PID.TID 0000.0001)         System time:   0.0000000000000000
(PID.TID 0000.0001)     Wall clock time:  0.22844529151916504
(PID.TID 0000.0001)          No. starts:          30
(PID.TID 0000.0001)           No. stops:          30
(PID.TID 0000.0001)   Seconds in section "THERMODYNAMICS      [FORWARD_STEP]":
(PID.TID 0000.0001)           User time:   5.9000000000000057
(PID.TID 0000.0001)         System time:   0.0000000000000000
(PID.TID 0000.0001)     Wall clock time:   5.9091551303863525
(PID.TID 0000.0001)          No. starts:          15
(PID.TID 0000.0001)           No. stops:          15
(PID.TID 0000.0001)   Seconds in section "TRC_CORRECTION_STEP [FORWARD_STEP]":
(PID.TID 0000.0001)           User time:   3.7700000000000102
(PID.TID 0000.0001)         System time:   0.0000000000000000
(PID.TID 0000.0001)     Wall clock time:   3.7864949703216553
(PID.TID 0000.0001)          No. starts:          15
(PID.TID 0000.0001)           No. stops:          15
(PID.TID 0000.0001)   Seconds in section "SHAP_FILT_TS       [TRC_CORR_STEP]":
(PID.TID 0000.0001)           User time:   3.6700000000000443
(PID.TID 0000.0001)         System time:   0.0000000000000000
(PID.TID 0000.0001)     Wall clock time:   3.6728827953338623
(PID.TID 0000.0001)          No. starts:          15
(PID.TID 0000.0001)           No. stops:          15
(PID.TID 0000.0001)   Seconds in section "FIZHI               [FORWARD_STEP]":
(PID.TID 0000.0001)           User time:   5.7399999999999949
(PID.TID 0000.0001)         System time:  1.00000000000000089E-002
(PID.TID 0000.0001)     Wall clock time:   5.7869997024536133
(PID.TID 0000.0001)          No. starts:          15
(PID.TID 0000.0001)           No. stops:          15
(PID.TID 0000.0001)   Seconds in section "PHYS2DYN          [STEP_FIZHI_CORR]":
(PID.TID 0000.0001)           User time:   1.2999999999999972
(PID.TID 0000.0001)         System time:   0.0000000000000000
(PID.TID 0000.0001)     Wall clock time:   1.3079807758331299
(PID.TID 0000.0001)          No. starts:          15
(PID.TID 0000.0001)           No. stops:          15
(PID.TID 0000.0001)   Seconds in section "ATOC              [STEP_FIZHI_CORR]":
(PID.TID 0000.0001)           User time:  0.57000000000003581
(PID.TID 0000.0001)         System time:   0.0000000000000000
(PID.TID 0000.0001)     Wall clock time:  0.55297255516052246
(PID.TID 0000.0001)          No. starts:          15
(PID.TID 0000.0001)           No. stops:          15
(PID.TID 0000.0001)   Seconds in section "CTOA              [STEP_FIZHI_CORR]":
(PID.TID 0000.0001)           User time:  0.46999999999999886
(PID.TID 0000.0001)         System time:   0.0000000000000000
(PID.TID 0000.0001)     Wall clock time:  0.48696827888488770
(PID.TID 0000.0001)          No. starts:          15
(PID.TID 0000.0001)           No. stops:          15
(PID.TID 0000.0001)   Seconds in section "DYN2PHYS          [STEP_FIZHI_CORR]":
(PID.TID 0000.0001)           User time:   2.0400000000000063
(PID.TID 0000.0001)         System time:   0.0000000000000000
(PID.TID 0000.0001)     Wall clock time:   2.0450992584228516
(PID.TID 0000.0001)          No. starts:          15
(PID.TID 0000.0001)           No. stops:          15
(PID.TID 0000.0001)   Seconds in section "DO_STATEVARS_TAVE   [FORWARD_STEP]":
(PID.TID 0000.0001)           User time:   0.0000000000000000
(PID.TID 0000.0001)         System time:   0.0000000000000000
(PID.TID 0000.0001)     Wall clock time:  1.66893005371093750E-004
(PID.TID 0000.0001)          No. starts:          15
(PID.TID 0000.0001)           No. stops:          15
(PID.TID 0000.0001)   Seconds in section "MONITOR             [FORWARD_STEP]":
(PID.TID 0000.0001)           User time:   4.1400000000000148
(PID.TID 0000.0001)         System time:   0.0000000000000000
(PID.TID 0000.0001)     Wall clock time:   4.1269257068634033
(PID.TID 0000.0001)          No. starts:          15
(PID.TID 0000.0001)           No. stops:          15
(PID.TID 0000.0001)   Seconds in section "DO_THE_MODEL_IO     [FORWARD_STEP]":
(PID.TID 0000.0001)           User time:   1.0099999999999909
(PID.TID 0000.0001)         System time:  0.12000000000000011
(PID.TID 0000.0001)     Wall clock time:   18.353183269500732
(PID.TID 0000.0001)          No. starts:          15
(PID.TID 0000.0001)           No. stops:          15
(PID.TID 0000.0001)   Seconds in section "DO_WRITE_PICKUP     [FORWARD_STEP]":
(PID.TID 0000.0001)           User time:   0.0000000000000000
(PID.TID 0000.0001)         System time:   0.0000000000000000
(PID.TID 0000.0001)     Wall clock time:  1.80006027221679688E-004
(PID.TID 0000.0001)          No. starts:          15
(PID.TID 0000.0001)           No. stops:          15
(PID.TID 0000.0001) // ======================================================
(PID.TID 0000.0001) // Tile <-> Tile communication statistics
(PID.TID 0000.0001) // ======================================================
(PID.TID 0000.0001) // o Tile number: 000001
(PID.TID 0000.0001) //         No. X exchanges =              0
(PID.TID 0000.0001) //            Max. X spins =              0
(PID.TID 0000.0001) //            Min. X spins =     1000000000
(PID.TID 0000.0001) //          Total. X spins =              0
(PID.TID 0000.0001) //            Avg. X spins =       0.00E+00
(PID.TID 0000.0001) //         No. Y exchanges =              0
(PID.TID 0000.0001) //            Max. Y spins =              0
(PID.TID 0000.0001) //            Min. Y spins =     1000000000
(PID.TID 0000.0001) //          Total. Y spins =              0
(PID.TID 0000.0001) //            Avg. Y spins =       0.00E+00
(PID.TID 0000.0001) // o Tile number: 000002
(PID.TID 0000.0001) //         No. X exchanges =              0
(PID.TID 0000.0001) //            Max. X spins =              0
(PID.TID 0000.0001) //            Min. X spins =     1000000000
(PID.TID 0000.0001) //          Total. X spins =              0
(PID.TID 0000.0001) //            Avg. X spins =       0.00E+00
(PID.TID 0000.0001) //         No. Y exchanges =              0
(PID.TID 0000.0001) //            Max. Y spins =              0
(PID.TID 0000.0001) //            Min. Y spins =     1000000000
(PID.TID 0000.0001) //          Total. Y spins =              0
(PID.TID 0000.0001) //            Avg. Y spins =       0.00E+00
(PID.TID 0000.0001) // o Tile number: 000003
(PID.TID 0000.0001) //         No. X exchanges =              0
(PID.TID 0000.0001) //            Max. X spins =              0
(PID.TID 0000.0001) //            Min. X spins =     1000000000
(PID.TID 0000.0001) //          Total. X spins =              0
(PID.TID 0000.0001) //            Avg. X spins =       0.00E+00
(PID.TID 0000.0001) //         No. Y exchanges =              0
(PID.TID 0000.0001) //            Max. Y spins =              0
(PID.TID 0000.0001) //            Min. Y spins =     1000000000
(PID.TID 0000.0001) //          Total. Y spins =              0
(PID.TID 0000.0001) //            Avg. Y spins =       0.00E+00
(PID.TID 0000.0001) // o Tile number: 000004
(PID.TID 0000.0001) //         No. X exchanges =              0
(PID.TID 0000.0001) //            Max. X spins =              0
(PID.TID 0000.0001) //            Min. X spins =     1000000000
(PID.TID 0000.0001) //          Total. X spins =              0
(PID.TID 0000.0001) //            Avg. X spins =       0.00E+00
(PID.TID 0000.0001) //         No. Y exchanges =              0
(PID.TID 0000.0001) //            Max. Y spins =              0
(PID.TID 0000.0001) //            Min. Y spins =     1000000000
(PID.TID 0000.0001) //          Total. Y spins =              0
(PID.TID 0000.0001) //            Avg. Y spins =       0.00E+00
(PID.TID 0000.0001) // o Tile number: 000005
(PID.TID 0000.0001) //         No. X exchanges =              0
(PID.TID 0000.0001) //            Max. X spins =              0
(PID.TID 0000.0001) //            Min. X spins =     1000000000
(PID.TID 0000.0001) //          Total. X spins =              0
(PID.TID 0000.0001) //            Avg. X spins =       0.00E+00
(PID.TID 0000.0001) //         No. Y exchanges =              0
(PID.TID 0000.0001) //            Max. Y spins =              0
(PID.TID 0000.0001) //            Min. Y spins =     1000000000
(PID.TID 0000.0001) //          Total. Y spins =              0
(PID.TID 0000.0001) //            Avg. Y spins =       0.00E+00
(PID.TID 0000.0001) // o Tile number: 000006
(PID.TID 0000.0001) //         No. X exchanges =              0
(PID.TID 0000.0001) //            Max. X spins =              0
(PID.TID 0000.0001) //            Min. X spins =     1000000000
(PID.TID 0000.0001) //          Total. X spins =              0
(PID.TID 0000.0001) //            Avg. X spins =       0.00E+00
(PID.TID 0000.0001) //         No. Y exchanges =              0
(PID.TID 0000.0001) //            Max. Y spins =              0
(PID.TID 0000.0001) //            Min. Y spins =     1000000000
(PID.TID 0000.0001) //          Total. Y spins =              0
(PID.TID 0000.0001) //            Avg. Y spins =       0.00E+00
(PID.TID 0000.0001) // o Thread number: 000001
(PID.TID 0000.0001) //            No. barriers =           5640
(PID.TID 0000.0001) //      Max. barrier spins =              1
(PID.TID 0000.0001) //      Min. barrier spins =              1
(PID.TID 0000.0001) //     Total barrier spins =           5640
(PID.TID 0000.0001) //      Avg. barrier spins =       1.00E+00
PROGRAM MAIN: Execution ended Normally
