(PID.TID 0000.0001) 
(PID.TID 0000.0001) // ======================================================
(PID.TID 0000.0001) //                      MITgcm UV
(PID.TID 0000.0001) //                      =========
(PID.TID 0000.0001) // ======================================================
(PID.TID 0000.0001) // execution environment starting up...
(PID.TID 0000.0001) 
(PID.TID 0000.0001) // MITgcmUV version:  checkpoint64d
(PID.TID 0000.0001) // Build user:        jmc
(PID.TID 0000.0001) // Build host:        baudelaire
(PID.TID 0000.0001) // Build date:        Mon Mar  4 13:45:03 EST 2013
(PID.TID 0000.0001) 
(PID.TID 0000.0001) // =======================================================
(PID.TID 0000.0001) // Execution Environment parameter file "eedata"
(PID.TID 0000.0001) // =======================================================
(PID.TID 0000.0001) ># Example "eedata" file
(PID.TID 0000.0001) ># Lines beginning "#" are comments
(PID.TID 0000.0001) ># nTx - No. threads per process in X
(PID.TID 0000.0001) ># nTy - No. threads per process in Y
(PID.TID 0000.0001) > &EEPARMS
(PID.TID 0000.0001) > useCubedSphereExchange=.TRUE.,
(PID.TID 0000.0001) > /
(PID.TID 0000.0001) ># Note: Some systems use & as the
(PID.TID 0000.0001) ># namelist terminator. Other systems
(PID.TID 0000.0001) ># use a / character (as shown here).
(PID.TID 0000.0001) 
(PID.TID 0000.0001) // =======================================================
(PID.TID 0000.0001) // Computational Grid Specification ( see files "SIZE.h" )
(PID.TID 0000.0001) //                                  ( and "eedata"       )
(PID.TID 0000.0001) // =======================================================
(PID.TID 0000.0001)      nPx =    1 ; /* No. processes in X */
(PID.TID 0000.0001)      nPy =    1 ; /* No. processes in Y */
(PID.TID 0000.0001)      nSx =    2 ; /* No. tiles in X per process */
(PID.TID 0000.0001)      nSy =    3 ; /* No. tiles in Y per process */
(PID.TID 0000.0001)      sNx =   32 ; /* Tile size in X */
(PID.TID 0000.0001)      sNy =   32 ; /* Tile size in Y */
(PID.TID 0000.0001)      OLx =    4 ; /* Tile overlap distance in X */
(PID.TID 0000.0001)      OLy =    4 ; /* Tile overlap distance in Y */
(PID.TID 0000.0001)      nTx =    1 ; /* No. threads in X per process */
(PID.TID 0000.0001)      nTy =    1 ; /* No. threads in Y per process */
(PID.TID 0000.0001)       Nr =    1 ; /* No. levels in the vertical   */
(PID.TID 0000.0001)       Nx =   64 ; /* Total domain size in X ( = nPx*nSx*sNx ) */
(PID.TID 0000.0001)       Ny =   96 ; /* Total domain size in Y ( = nPy*nSy*sNy ) */
(PID.TID 0000.0001)   nTiles =    6 ; /* Total no. tiles per process ( = nSx*nSy ) */
(PID.TID 0000.0001)   nProcs =    1 ; /* Total no. processes ( = nPx*nPy ) */
(PID.TID 0000.0001) nThreads =    1 ; /* Total no. threads per process ( = nTx*nTy ) */
(PID.TID 0000.0001) usingMPI =    F ; /* Flag used to control whether MPI is in use */
(PID.TID 0000.0001)                   /*  note: To execute a program with MPI calls */
(PID.TID 0000.0001)                   /*  it must be launched appropriately e.g     */
(PID.TID 0000.0001)                   /*  "mpirun -np 64 ......"                    */
(PID.TID 0000.0001) useCoupler=    F ;/* Flag used to control communications with   */
(PID.TID 0000.0001)                   /*  other model components, through a coupler */
(PID.TID 0000.0001) debugMode =    F ; /* print debug msg. (sequence of S/R calls)  */
(PID.TID 0000.0001) printMapIncludesZeros=    F ; /* print zeros in Std.Output maps */
(PID.TID 0000.0001) maxLengthPrt1D=   65 /* maxLength of 1D array printed to StdOut */
(PID.TID 0000.0001) 
(PID.TID 0000.0001) // ======================================================
(PID.TID 0000.0001) // Mapping of tiles to threads
(PID.TID 0000.0001) // ======================================================
(PID.TID 0000.0001) // -o- Thread   1, tiles (   1:   2,   1:   3)
(PID.TID 0000.0001) 
(PID.TID 0000.0001) W2_READPARMS: file data.exch2 not found
(PID.TID 0000.0001) => use W2_EXCH2 default: regular 6-facets Cube
(PID.TID 0000.0001) W2_useE2ioLayOut=    T ;/* T: use Exch2 glob IO map; F: use model default */
(PID.TID 0000.0001) W2_mapIO        =  -1 ; /* select option for Exch2 global-IO map */
(PID.TID 0000.0001) W2_printMsg     =  -1 ; /* select option for printing information */
(PID.TID 0000.0001) ===== Start setting W2 TOPOLOGY:
(PID.TID 0000.0001)  write to log-file: w2_tile_topology.0000.log
(PID.TID 0000.0001) =====       setting W2 TOPOLOGY: Done
(PID.TID 0000.0001) 
(PID.TID 0000.0001)  INI_PARMS: opening model parameter file "data"
(PID.TID 0000.0001)  OPEN_COPY_DATA_FILE: opening file data
(PID.TID 0000.0001) // =======================================================
(PID.TID 0000.0001) // Parameter file "data"
(PID.TID 0000.0001) // =======================================================
(PID.TID 0000.0001) ># ====================
(PID.TID 0000.0001) ># | Model parameters |
(PID.TID 0000.0001) ># ====================
(PID.TID 0000.0001) >#
(PID.TID 0000.0001) ># Continuous equation parameters
(PID.TID 0000.0001) > &PARM01
(PID.TID 0000.0001) > tRef=0.,
(PID.TID 0000.0001) > sRef=0.,
(PID.TID 0000.0001) > diffKrT=0.,
(PID.TID 0000.0001) > diffKhT=0.,
(PID.TID 0000.0001) > diffK4T=0.,
(PID.TID 0000.0001) > diffKrS=0.,
(PID.TID 0000.0001) > diffKhS=0.,
(PID.TID 0000.0001) > diffK4S=0.,
(PID.TID 0000.0001) > readBinaryPrec=64,
(PID.TID 0000.0001) > writeBinaryPrec=64,
(PID.TID 0000.0001) > momStepping=.FALSE.,
(PID.TID 0000.0001) > tempAdvScheme=33,
(PID.TID 0000.0001) > saltAdvScheme=80,
(PID.TID 0000.0001) > /
(PID.TID 0000.0001) >
(PID.TID 0000.0001) ># Elliptic solver parameters
(PID.TID 0000.0001) > &PARM02
(PID.TID 0000.0001) > cg2dMaxIters=600,
(PID.TID 0000.0001) > cg2dTargetResidual=1.E-12,
(PID.TID 0000.0001) > /
(PID.TID 0000.0001) >
(PID.TID 0000.0001) ># Time stepping parameters
(PID.TID 0000.0001) > &PARM03
(PID.TID 0000.0001) > niter0=0,
(PID.TID 0000.0001) > endTime=518400.,
(PID.TID 0000.0001) >#- to simulate 1 rotation period:
(PID.TID 0000.0001) >#endTime=1036800.,
(PID.TID 0000.0001) > abEps=0.1,
(PID.TID 0000.0001) > deltaT=2700.,
(PID.TID 0000.0001) > pChkptFreq=0.,
(PID.TID 0000.0001) > chkptFreq=0.,
(PID.TID 0000.0001) >#dumpFreq=86400.,
(PID.TID 0000.0001) > monitorSelect=1,
(PID.TID 0000.0001) > monitorFreq=21600.,
(PID.TID 0000.0001) > /
(PID.TID 0000.0001) >
(PID.TID 0000.0001) ># Gridding parameters
(PID.TID 0000.0001) > &PARM04
(PID.TID 0000.0001) > usingCurvilinearGrid=.TRUE.,
(PID.TID 0000.0001) > horizGridFile='grid_cs32',
(PID.TID 0000.0001) > delR=1.E5,
(PID.TID 0000.0001) > Ro_SeaLevel=1.E5,
(PID.TID 0000.0001) > /
(PID.TID 0000.0001) >
(PID.TID 0000.0001) ># Input datasets
(PID.TID 0000.0001) > &PARM05
(PID.TID 0000.0001) > hydrogThetaFile='T.init',
(PID.TID 0000.0001) > hydrogSaltFile='S.init',
(PID.TID 0000.0001) > /
(PID.TID 0000.0001) 
(PID.TID 0000.0001)  INI_PARMS ; starts to read PARM01
(PID.TID 0000.0001)  INI_PARMS ; read PARM01 : OK
(PID.TID 0000.0001) S/R INI_PARMS: No request for barotropic solver
(PID.TID 0000.0001) S/R INI_PARMS: => Use implicitFreeSurface as default
(PID.TID 0000.0001)  INI_PARMS ; starts to read PARM02
(PID.TID 0000.0001)  INI_PARMS ; read PARM02 : OK
(PID.TID 0000.0001)  INI_PARMS ; starts to read PARM03
(PID.TID 0000.0001)  INI_PARMS ; read PARM03 : OK
(PID.TID 0000.0001)  INI_PARMS ; starts to read PARM04
(PID.TID 0000.0001)  INI_PARMS ; read PARM04 : OK
(PID.TID 0000.0001)  INI_PARMS ; starts to read PARM05
(PID.TID 0000.0001)  INI_PARMS ; read PARM05 : OK
(PID.TID 0000.0001)  INI_PARMS: finished reading file "data"
(PID.TID 0000.0001)  PACKAGES_BOOT: opening data.pkg
(PID.TID 0000.0001)  OPEN_COPY_DATA_FILE: opening file data.pkg
(PID.TID 0000.0001) // =======================================================
(PID.TID 0000.0001) // Parameter file "data.pkg"
(PID.TID 0000.0001) // =======================================================
(PID.TID 0000.0001) ># Packages (lines beginning "#" are comments)
(PID.TID 0000.0001) > &PACKAGES
(PID.TID 0000.0001) > useDiagnostics=.TRUE.,
(PID.TID 0000.0001) > /
(PID.TID 0000.0001) 
(PID.TID 0000.0001)  PACKAGES_BOOT: finished reading data.pkg
(PID.TID 0000.0001)  DIAGNOSTICS_READPARMS: opening data.diagnostics
(PID.TID 0000.0001)  OPEN_COPY_DATA_FILE: opening file data.diagnostics
(PID.TID 0000.0001) // =======================================================
(PID.TID 0000.0001) // Parameter file "data.diagnostics"
(PID.TID 0000.0001) // =======================================================
(PID.TID 0000.0001) ># Diagnostic Package Choices
(PID.TID 0000.0001) >#--------------------
(PID.TID 0000.0001) >#  dumpAtLast (logical): always write output at the end of simulation (default=F)
(PID.TID 0000.0001) >#  diag_mnc   (logical): write to NetCDF files (default=useMNC)
(PID.TID 0000.0001) >#--for each output-stream:
(PID.TID 0000.0001) >#  fileName(n) : prefix of the output file name (max 80c long) for outp.stream n
(PID.TID 0000.0001) >#  frequency(n):< 0 : write snap-shot output every |frequency| seconds
(PID.TID 0000.0001) >#               > 0 : write time-average output every frequency seconds
(PID.TID 0000.0001) >#  timePhase(n)     : write at time = timePhase + multiple of |frequency|
(PID.TID 0000.0001) >#    averagingFreq  : frequency (in s) for periodic averaging interval
(PID.TID 0000.0001) >#    averagingPhase : phase     (in s) for periodic averaging interval
(PID.TID 0000.0001) >#    repeatCycle    : number of averaging intervals in 1 cycle
(PID.TID 0000.0001) >#  levels(:,n) : list of levels to write to file (Notes: declared as REAL)
(PID.TID 0000.0001) >#                when this entry is missing, select all common levels of this list
(PID.TID 0000.0001) >#  fields(:,n) : list of selected diagnostics fields (8.c) in outp.stream n
(PID.TID 0000.0001) >#                (see "available_diagnostics.log" file for the full list of diags)
(PID.TID 0000.0001) >#  missing_value(n) : missing value for real-type fields in output file "n"
(PID.TID 0000.0001) >#  fileFlags(n)     : specific code (8c string) for output file "n"
(PID.TID 0000.0001) >#--------------------
(PID.TID 0000.0001) > &DIAGNOSTICS_LIST
(PID.TID 0000.0001) ># diag_mnc     = .FALSE.,
(PID.TID 0000.0001) >  fields(1:2,1) = 'THETA   ','SALT    ',
(PID.TID 0000.0001) >   fileName(1) = 'ts_Diag',
(PID.TID 0000.0001) >  frequency(1) = -86400.,
(PID.TID 0000.0001) >  timePhase(1) = 0.,
(PID.TID 0000.0001) > /
(PID.TID 0000.0001) >
(PID.TID 0000.0001) >#--------------------
(PID.TID 0000.0001) ># Parameter for Diagnostics of per level statistics:
(PID.TID 0000.0001) >#--------------------
(PID.TID 0000.0001) >#  diagSt_mnc (logical): write stat-diags to NetCDF files (default=diag_mnc)
(PID.TID 0000.0001) >#  diagSt_regMaskFile : file containing the region-mask to read-in
(PID.TID 0000.0001) >#  nSetRegMskFile   : number of region-mask sets within the region-mask file
(PID.TID 0000.0001) >#  set_regMask(i)   : region-mask set-index that identifies the region "i"
(PID.TID 0000.0001) >#  val_regMask(i)   : region "i" identifier value in the region mask
(PID.TID 0000.0001) >#--for each output-stream:
(PID.TID 0000.0001) >#  stat_fName(n) : prefix of the output file name (max 80c long) for outp.stream n
(PID.TID 0000.0001) >#  stat_freq(n):< 0 : write snap-shot output every |stat_freq| seconds
(PID.TID 0000.0001) >#               > 0 : write time-average output every stat_freq seconds
(PID.TID 0000.0001) >#  stat_phase(n)    : write at time = stat_phase + multiple of |stat_freq|
(PID.TID 0000.0001) >#  stat_region(:,n) : list of "regions" (default: 1 region only=global)
(PID.TID 0000.0001) >#  stat_fields(:,n) : list of selected diagnostics fields (8.c) in outp.stream n
(PID.TID 0000.0001) >#                (see "available_diagnostics.log" file for the full list of diags)
(PID.TID 0000.0001) >#--------------------
(PID.TID 0000.0001) > &DIAG_STATIS_PARMS
(PID.TID 0000.0001) ># an example just to check the agreement with MONITOR output:
(PID.TID 0000.0001) >  stat_fields(1:3,1) = 'THETA   ','SALT    ','SM_v_SLT',
(PID.TID 0000.0001) >   stat_fName(1) = 'dynStDiag',
(PID.TID 0000.0001) >    stat_freq(1) = -21600.,
(PID.TID 0000.0001) >   stat_phase(1) = 0.,
(PID.TID 0000.0001) > /
(PID.TID 0000.0001) >
(PID.TID 0000.0001) 
(PID.TID 0000.0001) S/R DIAGNOSTICS_READPARMS, read namelist "diagnostics_list": start
(PID.TID 0000.0001) S/R DIAGNOSTICS_READPARMS, read namelist "diagnostics_list": OK
(PID.TID 0000.0001) S/R DIAGNOSTICS_READPARMS, read namelist "DIAG_STATIS_PARMS": start
(PID.TID 0000.0001) S/R DIAGNOSTICS_READPARMS, read namelist "DIAG_STATIS_PARMS": OK
(PID.TID 0000.0001)  DIAGNOSTICS_READPARMS: global parameter summary:
(PID.TID 0000.0001)  dumpAtLast = /* always write time-ave diags at the end */
(PID.TID 0000.0001)                   F
(PID.TID 0000.0001)     ;
(PID.TID 0000.0001)  diag_mnc =   /* write NetCDF output files */
(PID.TID 0000.0001)                   F
(PID.TID 0000.0001)     ;
(PID.TID 0000.0001)  useMissingValue = /* put MissingValue where mask = 0 */
(PID.TID 0000.0001)                   F
(PID.TID 0000.0001)     ;
(PID.TID 0000.0001)  diagCG_maxIters = /* max number of iters in diag_cg2d */
(PID.TID 0000.0001)                     600
(PID.TID 0000.0001)     ;
(PID.TID 0000.0001)  diagCG_resTarget = /* residual target for diag_cg2d */
(PID.TID 0000.0001)                 1.000000000000000E-12
(PID.TID 0000.0001)     ;
(PID.TID 0000.0001) -----------------------------------------------------
(PID.TID 0000.0001)  DIAGNOSTICS_READPARMS: active diagnostics summary:
(PID.TID 0000.0001) -----------------------------------------------------
(PID.TID 0000.0001) Creating Output Stream: ts_Diag
(PID.TID 0000.0001) Output Frequency:     -86400.000000 ; Phase:           0.000000
(PID.TID 0000.0001)  Averaging Freq.:          0.000000 , Phase:           0.000000 , Cycle:   1
(PID.TID 0000.0001)  missing value: -9.990000000000E+02
(PID.TID 0000.0001)  Levels:    will be set later
(PID.TID 0000.0001)  Fields:    THETA    SALT
(PID.TID 0000.0001) -----------------------------------------------------
(PID.TID 0000.0001)  DIAGNOSTICS_READPARMS: statistics diags. summary:
(PID.TID 0000.0001) Creating Stats. Output Stream: dynStDiag
(PID.TID 0000.0001) Output Frequency:     -21600.000000 ; Phase:           0.000000
(PID.TID 0000.0001)  Regions:   0
(PID.TID 0000.0001)  Fields:    THETA    SALT     SM_v_SLT
(PID.TID 0000.0001) -----------------------------------------------------
(PID.TID 0000.0001) 
(PID.TID 0000.0001) SET_PARMS: done
(PID.TID 0000.0001) Enter INI_VERTICAL_GRID: setInterFDr=    T ; setCenterDr=    F
(PID.TID 0000.0001) tile:   1 ; Read from file grid_cs32.face001.bin
(PID.TID 0000.0001)   => xC yC dxF dyF rA xG yG dxV dyU rAz dxC dyC rAw rAs dxG dyG AngleCS AngleSN
(PID.TID 0000.0001) tile:   2 ; Read from file grid_cs32.face002.bin
(PID.TID 0000.0001)   => xC yC dxF dyF rA xG yG dxV dyU rAz dxC dyC rAw rAs dxG dyG AngleCS AngleSN
(PID.TID 0000.0001) tile:   3 ; Read from file grid_cs32.face003.bin
(PID.TID 0000.0001)   => xC yC dxF dyF rA xG yG dxV dyU rAz dxC dyC rAw rAs dxG dyG AngleCS AngleSN
(PID.TID 0000.0001) tile:   4 ; Read from file grid_cs32.face004.bin
(PID.TID 0000.0001)   => xC yC dxF dyF rA xG yG dxV dyU rAz dxC dyC rAw rAs dxG dyG AngleCS AngleSN
(PID.TID 0000.0001) tile:   5 ; Read from file grid_cs32.face005.bin
(PID.TID 0000.0001)   => xC yC dxF dyF rA xG yG dxV dyU rAz dxC dyC rAw rAs dxG dyG AngleCS AngleSN
(PID.TID 0000.0001) tile:   6 ; Read from file grid_cs32.face006.bin
(PID.TID 0000.0001)   => xC yC dxF dyF rA xG yG dxV dyU rAz dxC dyC rAw rAs dxG dyG AngleCS AngleSN
(PID.TID 0000.0001) %MON XC_max                       =   1.7854351589505E+02
(PID.TID 0000.0001) %MON XC_min                       =  -1.7854351589505E+02
(PID.TID 0000.0001) %MON XC_mean                      =  -4.6999441375798E-15
(PID.TID 0000.0001) %MON XC_sd                        =   1.0355545336287E+02
(PID.TID 0000.0001) %MON XG_max                       =   1.8000000000000E+02
(PID.TID 0000.0001) %MON XG_min                       =  -1.7708797161002E+02
(PID.TID 0000.0001) %MON XG_mean                      =   1.8603515625000E+00
(PID.TID 0000.0001) %MON XG_sd                        =   1.0357130300504E+02
(PID.TID 0000.0001) %MON DXC_max                      =   3.2375185836900E+05
(PID.TID 0000.0001) %MON DXC_min                      =   1.1142031410131E+05
(PID.TID 0000.0001) %MON DXC_mean                     =   2.8605689051214E+05
(PID.TID 0000.0001) %MON DXC_sd                       =   3.4042087138252E+04
(PID.TID 0000.0001) %MON DXF_max                      =   3.2369947500827E+05
(PID.TID 0000.0001) %MON DXF_min                      =   1.2020820513318E+05
(PID.TID 0000.0001) %MON DXF_mean                     =   2.8605437324820E+05
(PID.TID 0000.0001) %MON DXF_sd                       =   3.4050524252539E+04
(PID.TID 0000.0001) %MON DXG_max                      =   3.2375195872773E+05
(PID.TID 0000.0001) %MON DXG_min                      =   1.0098378008791E+05
(PID.TID 0000.0001) %MON DXG_mean                     =   2.8603818508931E+05
(PID.TID 0000.0001) %MON DXG_sd                       =   3.4140406908005E+04
(PID.TID 0000.0001) %MON DXV_max                      =   3.2380418162750E+05
(PID.TID 0000.0001) %MON DXV_min                      =   8.0152299824136E+04
(PID.TID 0000.0001) %MON DXV_mean                     =   2.8603970633619E+05
(PID.TID 0000.0001) %MON DXV_sd                       =   3.4145142117723E+04
(PID.TID 0000.0001) %MON YC_max                       =   8.7940663871962E+01
(PID.TID 0000.0001) %MON YC_min                       =  -8.7940663871962E+01
(PID.TID 0000.0001) %MON YC_mean                      =   0.0000000000000E+00
(PID.TID 0000.0001) %MON YC_sd                        =   3.8676242969072E+01
(PID.TID 0000.0001) %MON YG_max                       =   9.0000000000000E+01
(PID.TID 0000.0001) %MON YG_min                       =  -9.0000000000000E+01
(PID.TID 0000.0001) %MON YG_mean                      =  -1.1842378929335E-15
(PID.TID 0000.0001) %MON YG_sd                        =   3.8676895860710E+01
(PID.TID 0000.0001) %MON DYC_max                      =   3.2375185836900E+05
(PID.TID 0000.0001) %MON DYC_min                      =   1.1142031410131E+05
(PID.TID 0000.0001) %MON DYC_mean                     =   2.8605689051214E+05
(PID.TID 0000.0001) %MON DYC_sd                       =   3.4042087138252E+04
(PID.TID 0000.0001) %MON DYF_max                      =   3.2369947500827E+05
(PID.TID 0000.0001) %MON DYF_min                      =   1.2020820513318E+05
(PID.TID 0000.0001) %MON DYF_mean                     =   2.8605437324820E+05
(PID.TID 0000.0001) %MON DYF_sd                       =   3.4050524252539E+04
(PID.TID 0000.0001) %MON DYG_max                      =   3.2375195872773E+05
(PID.TID 0000.0001) %MON DYG_min                      =   1.0098378008791E+05
(PID.TID 0000.0001) %MON DYG_mean                     =   2.8603818508931E+05
(PID.TID 0000.0001) %MON DYG_sd                       =   3.4140406908005E+04
(PID.TID 0000.0001) %MON DYU_max                      =   3.2380418162750E+05
(PID.TID 0000.0001) %MON DYU_min                      =   8.0152299824136E+04
(PID.TID 0000.0001) %MON DYU_mean                     =   2.8603970633619E+05
(PID.TID 0000.0001) %MON DYU_sd                       =   3.4145142117723E+04
(PID.TID 0000.0001) %MON RA_max                       =   1.0479260248419E+11
(PID.TID 0000.0001) %MON RA_min                       =   1.4019007022556E+10
(PID.TID 0000.0001) %MON RA_mean                      =   8.2992246709265E+10
(PID.TID 0000.0001) %MON RA_sd                        =   1.7509089299457E+10
(PID.TID 0000.0001) %MON RAW_max                      =   1.0480965274559E+11
(PID.TID 0000.0001) %MON RAW_min                      =   1.2166903467143E+10
(PID.TID 0000.0001) %MON RAW_mean                     =   8.2992246709235E+10
(PID.TID 0000.0001) %MON RAW_sd                       =   1.7481917919656E+10
(PID.TID 0000.0001) %MON RAS_max                      =   1.0480965274559E+11
(PID.TID 0000.0001) %MON RAS_min                      =   1.2166903467143E+10
(PID.TID 0000.0001) %MON RAS_mean                     =   8.2992246709235E+10
(PID.TID 0000.0001) %MON RAS_sd                       =   1.7481917919656E+10
(PID.TID 0000.0001) %MON RAZ_max                      =   1.0484349334619E+11
(PID.TID 0000.0001) %MON RAZ_min                      =   8.8317900612505E+09
(PID.TID 0000.0001) %MON RAZ_mean                     =   8.2992246709235E+10
(PID.TID 0000.0001) %MON RAZ_sd                       =   1.7482297311044E+10
(PID.TID 0000.0001) %MON AngleCS_max                  =   9.9999994756719E-01
(PID.TID 0000.0001) %MON AngleCS_min                  =  -9.9968286884824E-01
(PID.TID 0000.0001) %MON AngleCS_mean                 =   3.3078922539000E-01
(PID.TID 0000.0001) %MON AngleCS_sd                   =   6.2496278958502E-01
(PID.TID 0000.0001) %MON AngleSN_max                  =   9.9968286884824E-01
(PID.TID 0000.0001) %MON AngleSN_min                  =  -9.9999994756719E-01
(PID.TID 0000.0001) %MON AngleSN_mean                 =  -3.3078922539000E-01
(PID.TID 0000.0001) %MON AngleSN_sd                   =   6.2496278958502E-01
(PID.TID 0000.0001) // =======================================================
(PID.TID 0000.0001) // Field Model R_low (ini_masks_etc)
(PID.TID 0000.0001) // CMIN =          1.000000000000000E+32
(PID.TID 0000.0001) // CMAX =         -1.000000000000000E+32
(PID.TID 0000.0001) // CINT =          0.000000000000000E+00
(PID.TID 0000.0001) // SYMBOLS (CMIN->CMAX): -abcdefghijklmnopqrstuvwxyz+
(PID.TID 0000.0001) //                  0.0: .
(PID.TID 0000.0001) // RANGE I (Lo:Hi:Step):(    -3:    68:     1)
(PID.TID 0000.0001) // RANGE J (Lo:Hi:Step):(   100:    -3:    -1)
(PID.TID 0000.0001) // RANGE K (Lo:Hi:Step):(   1:   1:   1)
(PID.TID 0000.0001) // =======================================================
(PID.TID 0000.0001) // =======================================================
(PID.TID 0000.0001) // END OF FIELD                                          =
(PID.TID 0000.0001) // =======================================================
(PID.TID 0000.0001) 
(PID.TID 0000.0001) // =======================================================
(PID.TID 0000.0001) // Field Model Ro_surf (ini_masks_etc)
(PID.TID 0000.0001) // CMIN =          1.000000000000000E+05
(PID.TID 0000.0001) // CMAX =          1.000000000000000E+05
(PID.TID 0000.0001) // CINT =          0.000000000000000E+00
(PID.TID 0000.0001) // SYMBOLS (CMIN->CMAX): -abcdefghijklmnopqrstuvwxyz+
(PID.TID 0000.0001) //                  0.0: .
(PID.TID 0000.0001) // RANGE I (Lo:Hi:Step):(    -3:    68:     1)
(PID.TID 0000.0001) // RANGE J (Lo:Hi:Step):(   100:    -3:    -1)
(PID.TID 0000.0001) // RANGE K (Lo:Hi:Step):(   1:   1:   1)
(PID.TID 0000.0001) // =======================================================
(PID.TID 0000.0001) // =======================================================
(PID.TID 0000.0001) // END OF FIELD                                          =
(PID.TID 0000.0001) // =======================================================
(PID.TID 0000.0001) 
(PID.TID 0000.0001) // =======================================================
(PID.TID 0000.0001) // Field hFacC at iteration          0
(PID.TID 0000.0001) // CMIN =          1.000000000000000E+00
(PID.TID 0000.0001) // CMAX =          1.000000000000000E+00
(PID.TID 0000.0001) // CINT =          0.000000000000000E+00
(PID.TID 0000.0001) // SYMBOLS (CMIN->CMAX): -abcdefghijklmnopqrstuvwxyz+
(PID.TID 0000.0001) //                  0.0: .
(PID.TID 0000.0001) // RANGE I (Lo:Hi:Step):(    -3:    68:     1)
(PID.TID 0000.0001) // RANGE J (Lo:Hi:Step):(   100:    -3:    -1)
(PID.TID 0000.0001) // RANGE K (Lo:Hi:Step):(   1:   1:   1)
(PID.TID 0000.0001) // =======================================================
(PID.TID 0000.0001) // =======================================================
(PID.TID 0000.0001) // END OF FIELD                                          =
(PID.TID 0000.0001) // =======================================================
(PID.TID 0000.0001) 
(PID.TID 0000.0001) // =======================================================
(PID.TID 0000.0001) // Field hFacW at iteration          0
(PID.TID 0000.0001) // CMIN =          1.000000000000000E+00
(PID.TID 0000.0001) // CMAX =          1.000000000000000E+00
(PID.TID 0000.0001) // CINT =          0.000000000000000E+00
(PID.TID 0000.0001) // SYMBOLS (CMIN->CMAX): -abcdefghijklmnopqrstuvwxyz+
(PID.TID 0000.0001) //                  0.0: .
(PID.TID 0000.0001) // RANGE I (Lo:Hi:Step):(    -3:    68:     1)
(PID.TID 0000.0001) // RANGE J (Lo:Hi:Step):(   100:    -3:    -1)
(PID.TID 0000.0001) // RANGE K (Lo:Hi:Step):(   1:   1:   1)
(PID.TID 0000.0001) // =======================================================
(PID.TID 0000.0001) // =======================================================
(PID.TID 0000.0001) // END OF FIELD                                          =
(PID.TID 0000.0001) // =======================================================
(PID.TID 0000.0001) 
(PID.TID 0000.0001) // =======================================================
(PID.TID 0000.0001) // Field hFacS at iteration          0
(PID.TID 0000.0001) // CMIN =          1.000000000000000E+00
(PID.TID 0000.0001) // CMAX =          1.000000000000000E+00
(PID.TID 0000.0001) // CINT =          0.000000000000000E+00
(PID.TID 0000.0001) // SYMBOLS (CMIN->CMAX): -abcdefghijklmnopqrstuvwxyz+
(PID.TID 0000.0001) //                  0.0: .
(PID.TID 0000.0001) // RANGE I (Lo:Hi:Step):(    -3:    68:     1)
(PID.TID 0000.0001) // RANGE J (Lo:Hi:Step):(   100:    -3:    -1)
(PID.TID 0000.0001) // RANGE K (Lo:Hi:Step):(   1:   1:   1)
(PID.TID 0000.0001) // =======================================================
(PID.TID 0000.0001) // =======================================================
(PID.TID 0000.0001) // END OF FIELD                                          =
(PID.TID 0000.0001) // =======================================================
(PID.TID 0000.0001) 
(PID.TID 0000.0001) GAD_INIT_FIXED: GAD_OlMinSize=  2  0  2
(PID.TID 0000.0001) 
(PID.TID 0000.0001) // ===================================
(PID.TID 0000.0001) // GAD parameters :
(PID.TID 0000.0001) // ===================================
(PID.TID 0000.0001) tempAdvScheme =   /* Temp. Horiz.Advection scheme selector */
(PID.TID 0000.0001)                      33
(PID.TID 0000.0001)     ;
(PID.TID 0000.0001) tempVertAdvScheme =   /* Temp. Vert. Advection scheme selector */
(PID.TID 0000.0001)                      33
(PID.TID 0000.0001)     ;
(PID.TID 0000.0001) tempMultiDimAdvec =   /* use Muti-Dim Advec method for Temp */
(PID.TID 0000.0001)                   T
(PID.TID 0000.0001)     ;
(PID.TID 0000.0001) tempSOM_Advection = /* use 2nd Order Moment Advection for Temp */
(PID.TID 0000.0001)                   F
(PID.TID 0000.0001)     ;
(PID.TID 0000.0001) AdamsBashforthGt = /* apply Adams-Bashforth extrapolation on Gt */
(PID.TID 0000.0001)                   F
(PID.TID 0000.0001)     ;
(PID.TID 0000.0001) AdamsBashforth_T = /* apply Adams-Bashforth extrapolation on Temp */
(PID.TID 0000.0001)                   F
(PID.TID 0000.0001)     ;
(PID.TID 0000.0001) saltAdvScheme =   /* Salt. Horiz.advection scheme selector */
(PID.TID 0000.0001)                      80
(PID.TID 0000.0001)     ;
(PID.TID 0000.0001) saltVertAdvScheme =   /* Salt. Vert. Advection scheme selector */
(PID.TID 0000.0001)                      80
(PID.TID 0000.0001)     ;
(PID.TID 0000.0001) saltMultiDimAdvec =   /* use Muti-Dim Advec method for Salt */
(PID.TID 0000.0001)                   T
(PID.TID 0000.0001)     ;
(PID.TID 0000.0001) saltSOM_Advection = /* use 2nd Order Moment Advection for Salt */
(PID.TID 0000.0001)                   T
(PID.TID 0000.0001)     ;
(PID.TID 0000.0001) AdamsBashforthGs = /* apply Adams-Bashforth extrapolation on Gs */
(PID.TID 0000.0001)                   F
(PID.TID 0000.0001)     ;
(PID.TID 0000.0001) AdamsBashforth_S = /* apply Adams-Bashforth extrapolation on Salt */
(PID.TID 0000.0001)                   F
(PID.TID 0000.0001)     ;
(PID.TID 0000.0001) // ===================================
(PID.TID 0000.0001) ------------------------------------------------------------
(PID.TID 0000.0001) DIAGNOSTICS_SET_LEVELS: done
(PID.TID 0000.0001)  Total Nb of available Diagnostics: ndiagt=   140
(PID.TID 0000.0001)  write list of available Diagnostics to file: available_diagnostics.log
(PID.TID 0000.0001) SETDIAG: Allocate  1 x  1 Levels for Diagnostic #    26 THETA
(PID.TID 0000.0001) SETDIAG: Allocate  1 x  1 Levels for Diagnostic #    27 SALT
(PID.TID 0000.0001)   space allocated for all diagnostics:       2 levels
(PID.TID 0000.0001) DIAGNOSTICS_SET_POINTERS: Set levels for Outp.Stream: ts_Diag
(PID.TID 0000.0001)  Levels:       1.
(PID.TID 0000.0001) DIAGNOSTICS_SET_POINTERS: done
(PID.TID 0000.0001) ------------------------------------------------------------
(PID.TID 0000.0001) DIAGSTATS_SET_REGIONS: define no region
(PID.TID 0000.0001) ------------------------------------------------------------
(PID.TID 0000.0001) SETDIAG: Allocate  1 Levels for Stats-Diag #    26 THETA
(PID.TID 0000.0001) SETDIAG: Allocate  1 Levels for Stats-Diag #    27 SALT
(PID.TID 0000.0001) SETDIAG: Allocate  1 Levels for Stats-Diag #   140 SM_v_SLT
(PID.TID 0000.0001)   space allocated for all stats-diags:       3 levels
(PID.TID 0000.0001) DIAGSTATS_SET_POINTERS: done
(PID.TID 0000.0001) ------------------------------------------------------------
(PID.TID 0000.0001) DIAGSTATS_INI_IO: open file: dynStDiag.0000000000.txt , unit=     9
(PID.TID 0000.0001) INI_GLOBAL_DOMAIN: Found  24 CS-corner Pts in the domain
(PID.TID 0000.0001) %MON fCori_max                    =   1.4574827780704E-04
(PID.TID 0000.0001) %MON fCori_min                    =  -1.4574827780704E-04
(PID.TID 0000.0001) %MON fCori_mean                   =   0.0000000000000E+00
(PID.TID 0000.0001) %MON fCori_sd                     =   8.4202189509968E-05
(PID.TID 0000.0001) %MON fCoriG_max                   =   1.4584247033981E-04
(PID.TID 0000.0001) %MON fCoriG_min                   =  -1.4584247033981E-04
(PID.TID 0000.0001) %MON fCoriG_mean                  =   2.2587545260115E-21
(PID.TID 0000.0001) %MON fCoriG_sd                    =   8.4202189509968E-05
(PID.TID 0000.0001) %MON fCoriCos_max                 =   1.4580166994612E-04
(PID.TID 0000.0001) %MON fCoriCos_min                 =   5.2407700865903E-06
(PID.TID 0000.0001) %MON fCoriCos_mean                =   1.1514045869113E-04
(PID.TID 0000.0001) %MON fCoriCos_sd                  =   3.0375849106513E-05
(PID.TID 0000.0001) INI_CG2D: CG2D normalisation factor =  9.9119603843467478E-06
(PID.TID 0000.0001) 
(PID.TID 0000.0001) // =======================================================
(PID.TID 0000.0001) // Model configuration
(PID.TID 0000.0001) // =======================================================
(PID.TID 0000.0001) //
(PID.TID 0000.0001) // "Physical" paramters ( PARM01 in namelist )
(PID.TID 0000.0001) //
(PID.TID 0000.0001) buoyancyRelation = /* Type of relation to get Buoyancy */
(PID.TID 0000.0001)               'OCEANIC'
(PID.TID 0000.0001)     ;
(PID.TID 0000.0001) fluidIsAir   =  /* fluid major constituent is Air */
(PID.TID 0000.0001)                   F
(PID.TID 0000.0001)     ;
(PID.TID 0000.0001) fluidIsWater =  /* fluid major constituent is Water */
(PID.TID 0000.0001)                   T
(PID.TID 0000.0001)     ;
(PID.TID 0000.0001) usingPCoords =  /* use p (or p*) vertical coordinate */
(PID.TID 0000.0001)                   F
(PID.TID 0000.0001)     ;
(PID.TID 0000.0001) usingZCoords =  /* use z (or z*) vertical coordinate */
(PID.TID 0000.0001)                   T
(PID.TID 0000.0001)     ;
(PID.TID 0000.0001) tRef =   /* Reference temperature profile ( oC or K ) */
(PID.TID 0000.0001)                 0.000000000000000E+00       /* K =  1 */
(PID.TID 0000.0001)     ;
(PID.TID 0000.0001) sRef =   /* Reference salinity profile ( psu ) */
(PID.TID 0000.0001)                 0.000000000000000E+00       /* K =  1 */
(PID.TID 0000.0001)     ;
(PID.TID 0000.0001) viscAh  =   /* Lateral eddy viscosity ( m^2/s ) */
(PID.TID 0000.0001)                 0.000000000000000E+00
(PID.TID 0000.0001)     ;
(PID.TID 0000.0001) viscAhMax = /* Maximum lateral eddy viscosity ( m^2/s ) */
(PID.TID 0000.0001)                 1.000000000000000E+21
(PID.TID 0000.0001)     ;
(PID.TID 0000.0001) viscAhGrid = /* Grid dependent lateral eddy viscosity ( non-dim. ) */
(PID.TID 0000.0001)                 0.000000000000000E+00
(PID.TID 0000.0001)     ;
(PID.TID 0000.0001) useFullLeith = /* Use Full Form of Leith Viscosity on/off flag*/
(PID.TID 0000.0001)                   F
(PID.TID 0000.0001)     ;
(PID.TID 0000.0001) useStrainTensionVisc= /* Use StrainTension Form of Viscous Operator flag*/
(PID.TID 0000.0001)                   F
(PID.TID 0000.0001)     ;
(PID.TID 0000.0001) useAreaViscLength = /* Use area for visc length instead of geom. mean*/
(PID.TID 0000.0001)                   F
(PID.TID 0000.0001)     ;
(PID.TID 0000.0001) viscC2leith = /* Leith harmonic visc. factor (on grad(vort),non-dim.) */
(PID.TID 0000.0001)                 0.000000000000000E+00
(PID.TID 0000.0001)     ;
(PID.TID 0000.0001) viscC2leithD = /* Leith harmonic viscosity factor (on grad(div),non-dim.)*/
(PID.TID 0000.0001)                 0.000000000000000E+00
(PID.TID 0000.0001)     ;
(PID.TID 0000.0001) viscC2smag = /* Smagorinsky harmonic viscosity factor (non-dim.) */
(PID.TID 0000.0001)                 0.000000000000000E+00
(PID.TID 0000.0001)     ;
(PID.TID 0000.0001) viscA4  =   /* Lateral biharmonic viscosity ( m^4/s ) */
(PID.TID 0000.0001)                 0.000000000000000E+00
(PID.TID 0000.0001)     ;
(PID.TID 0000.0001) viscA4Max = /* Maximum biharmonic viscosity ( m^2/s ) */
(PID.TID 0000.0001)                 1.000000000000000E+21
(PID.TID 0000.0001)     ;
(PID.TID 0000.0001) viscA4Grid = /* Grid dependent biharmonic viscosity ( non-dim. ) */
(PID.TID 0000.0001)                 0.000000000000000E+00
(PID.TID 0000.0001)     ;
(PID.TID 0000.0001) viscC4leith = /* Leith biharm viscosity factor (on grad(vort), non-dim.)*/
(PID.TID 0000.0001)                 0.000000000000000E+00
(PID.TID 0000.0001)     ;
(PID.TID 0000.0001) viscC4leithD = /* Leith biharm viscosity factor (on grad(div), non-dim.) */
(PID.TID 0000.0001)                 0.000000000000000E+00
(PID.TID 0000.0001)     ;
(PID.TID 0000.0001) viscC4Smag = /* Smagorinsky biharm viscosity factor (non-dim) */
(PID.TID 0000.0001)                 0.000000000000000E+00
(PID.TID 0000.0001)     ;
(PID.TID 0000.0001) no_slip_sides =  /* Viscous BCs: No-slip sides */
(PID.TID 0000.0001)                   T
(PID.TID 0000.0001)     ;
(PID.TID 0000.0001) sideDragFactor = /* side-drag scaling factor (non-dim) */
(PID.TID 0000.0001)                 2.000000000000000E+00
(PID.TID 0000.0001)     ;
(PID.TID 0000.0001) viscArNr = /* vertical profile of vertical viscosity ( m^2/s )*/
(PID.TID 0000.0001)                 0.000000000000000E+00       /* K =  1 */
(PID.TID 0000.0001)     ;
(PID.TID 0000.0001) no_slip_bottom =  /* Viscous BCs: No-slip bottom */
(PID.TID 0000.0001)                   T
(PID.TID 0000.0001)     ;
(PID.TID 0000.0001) bottomDragLinear = /* linear bottom-drag coefficient ( m/s ) */
(PID.TID 0000.0001)                 0.000000000000000E+00
(PID.TID 0000.0001)     ;
(PID.TID 0000.0001) bottomDragQuadratic = /* quadratic bottom-drag coefficient (-) */
(PID.TID 0000.0001)                 0.000000000000000E+00
(PID.TID 0000.0001)     ;
(PID.TID 0000.0001) diffKhT =   /* Laplacian diffusion of heat laterally ( m^2/s ) */
(PID.TID 0000.0001)                 0.000000000000000E+00
(PID.TID 0000.0001)     ;
(PID.TID 0000.0001) diffK4T =   /* Biharmonic diffusion of heat laterally ( m^4/s ) */
(PID.TID 0000.0001)                 0.000000000000000E+00
(PID.TID 0000.0001)     ;
(PID.TID 0000.0001) diffKhS =   /* Laplacian diffusion of salt laterally ( m^2/s ) */
(PID.TID 0000.0001)                 0.000000000000000E+00
(PID.TID 0000.0001)     ;
(PID.TID 0000.0001) diffK4S =   /* Biharmonic diffusion of salt laterally ( m^4/s ) */
(PID.TID 0000.0001)                 0.000000000000000E+00
(PID.TID 0000.0001)     ;
(PID.TID 0000.0001) diffKrNrT = /* vertical profile of vertical diffusion of Temp ( m^2/s )*/
(PID.TID 0000.0001)                 0.000000000000000E+00       /* K =  1 */
(PID.TID 0000.0001)     ;
(PID.TID 0000.0001) diffKrNrS = /* vertical profile of vertical diffusion of Salt ( m^2/s )*/
(PID.TID 0000.0001)                 0.000000000000000E+00       /* K =  1 */
(PID.TID 0000.0001)     ;
(PID.TID 0000.0001) diffKrBL79surf = /* Surface diffusion for Bryan and Lewis 79 ( m^2/s ) */
(PID.TID 0000.0001)                 0.000000000000000E+00
(PID.TID 0000.0001)     ;
(PID.TID 0000.0001) diffKrBL79deep = /* Deep diffusion for Bryan and Lewis 1979 ( m^2/s ) */
(PID.TID 0000.0001)                 0.000000000000000E+00
(PID.TID 0000.0001)     ;
(PID.TID 0000.0001) diffKrBL79scl = /* Depth scale for Bryan and Lewis 1979 ( m ) */
(PID.TID 0000.0001)                 2.000000000000000E+02
(PID.TID 0000.0001)     ;
(PID.TID 0000.0001) diffKrBL79Ho = /* Turning depth for Bryan and Lewis 1979 ( m ) */
(PID.TID 0000.0001)                -2.000000000000000E+03
(PID.TID 0000.0001)     ;
(PID.TID 0000.0001) ivdc_kappa = /* Implicit Vertical Diffusivity for Convection ( m^2/s) */
(PID.TID 0000.0001)                 0.000000000000000E+00
(PID.TID 0000.0001)     ;
(PID.TID 0000.0001) hMixCriteria=  /* Criteria for mixed-layer diagnostic */
(PID.TID 0000.0001)                -8.000000000000000E-01
(PID.TID 0000.0001)     ;
(PID.TID 0000.0001) dRhoSmall =  /* Parameter for mixed-layer diagnostic */
(PID.TID 0000.0001)                 1.000000000000000E-06
(PID.TID 0000.0001)     ;
(PID.TID 0000.0001) hMixSmooth=  /* Smoothing parameter for mixed-layer diagnostic */
(PID.TID 0000.0001)                 0.000000000000000E+00
(PID.TID 0000.0001)     ;
(PID.TID 0000.0001) eosType =  /* Type of Equation of State */
(PID.TID 0000.0001)               'LINEAR'
(PID.TID 0000.0001)     ;
(PID.TID 0000.0001) tAlpha = /* Linear EOS thermal expansion coefficient ( 1/oC ) */
(PID.TID 0000.0001)                 2.000000000000000E-04
(PID.TID 0000.0001)     ;
(PID.TID 0000.0001) sBeta  = /* Linear EOS haline contraction coefficient ( 1/psu ) */
(PID.TID 0000.0001)                 7.400000000000000E-04
(PID.TID 0000.0001)     ;
(PID.TID 0000.0001) rhoNil    = /* Reference density for Linear EOS ( kg/m^3 ) */
(PID.TID 0000.0001)                 9.998000000000000E+02
(PID.TID 0000.0001)     ;
(PID.TID 0000.0001) celsius2K = /* 0 degree Celsius converted to Kelvin ( K ) */
(PID.TID 0000.0001)                 2.731500000000000E+02
(PID.TID 0000.0001)     ;
(PID.TID 0000.0001) rhoConst  = /* Reference density (Boussinesq)  ( kg/m^3 ) */
(PID.TID 0000.0001)                 9.998000000000000E+02
(PID.TID 0000.0001)     ;
(PID.TID 0000.0001) rhoFacC = /* normalized Reference density @ cell-Center (-) */
(PID.TID 0000.0001)                 1.000000000000000E+00       /* K =  1 */
(PID.TID 0000.0001)     ;
(PID.TID 0000.0001) rhoFacF = /* normalized Reference density @ W-Interface (-) */
(PID.TID 0000.0001)     2 @  1.000000000000000E+00              /* K =  1:  2 */
(PID.TID 0000.0001)     ;
(PID.TID 0000.0001) rhoConstFresh = /* Fresh-water reference density ( kg/m^3 ) */
(PID.TID 0000.0001)                 9.998000000000000E+02
(PID.TID 0000.0001)     ;
(PID.TID 0000.0001) gravity =   /* Gravitational acceleration ( m/s^2 ) */
(PID.TID 0000.0001)                 9.810000000000000E+00
(PID.TID 0000.0001)     ;
(PID.TID 0000.0001) gBaro =   /* Barotropic gravity ( m/s^2 ) */
(PID.TID 0000.0001)                 9.810000000000000E+00
(PID.TID 0000.0001)     ;
(PID.TID 0000.0001) rotationPeriod =   /* Rotation Period ( s ) */
(PID.TID 0000.0001)                 8.616400000000000E+04
(PID.TID 0000.0001)     ;
(PID.TID 0000.0001) omega =   /* Angular velocity ( rad/s ) */
(PID.TID 0000.0001)                 7.292123516990375E-05
(PID.TID 0000.0001)     ;
(PID.TID 0000.0001) f0 =   /* Reference coriolis parameter ( 1/s ) */
(PID.TID 0000.0001)                 1.000000000000000E-04
(PID.TID 0000.0001)     ;
(PID.TID 0000.0001) beta =   /* Beta ( 1/(m.s) ) */
(PID.TID 0000.0001)                 9.999999999999999E-12
(PID.TID 0000.0001)     ;
(PID.TID 0000.0001) fPrime =   /* Second coriolis parameter ( 1/s ) */
(PID.TID 0000.0001)                 0.000000000000000E+00
(PID.TID 0000.0001)     ;
(PID.TID 0000.0001) rigidLid =   /* Rigid lid on/off flag */
(PID.TID 0000.0001)                   F
(PID.TID 0000.0001)     ;
(PID.TID 0000.0001) implicitFreeSurface =   /* Implicit free surface on/off flag */
(PID.TID 0000.0001)                   T
(PID.TID 0000.0001)     ;
(PID.TID 0000.0001) freeSurfFac =   /* Implicit free surface factor */
(PID.TID 0000.0001)                 1.000000000000000E+00
(PID.TID 0000.0001)     ;
(PID.TID 0000.0001) implicSurfPress =  /* Surface Pressure implicit factor (0-1)*/
(PID.TID 0000.0001)                 1.000000000000000E+00
(PID.TID 0000.0001)     ;
(PID.TID 0000.0001) implicDiv2Dflow =  /* Barot. Flow Div. implicit factor (0-1)*/
(PID.TID 0000.0001)                 1.000000000000000E+00
(PID.TID 0000.0001)     ;
(PID.TID 0000.0001) uniformLin_PhiSurf = /* use uniform Bo_surf on/off flag*/
(PID.TID 0000.0001)                   T
(PID.TID 0000.0001)     ;
(PID.TID 0000.0001) uniformFreeSurfLev = /* free-surface level-index is uniform */
(PID.TID 0000.0001)                   T
(PID.TID 0000.0001)     ;
(PID.TID 0000.0001) hFacMin =   /* minimum partial cell factor (hFac) */
(PID.TID 0000.0001)                 1.000000000000000E+00
(PID.TID 0000.0001)     ;
(PID.TID 0000.0001) hFacMinDr = /* minimum partial cell thickness ( m) */
(PID.TID 0000.0001)                 1.000000000000000E+00
(PID.TID 0000.0001)     ;
(PID.TID 0000.0001) exactConserv =  /* Exact Volume Conservation on/off flag*/
(PID.TID 0000.0001)                   F
(PID.TID 0000.0001)     ;
(PID.TID 0000.0001) linFSConserveTr = /* Tracer correction for Lin Free Surface on/off flag*/
(PID.TID 0000.0001)                   F
(PID.TID 0000.0001)     ;
(PID.TID 0000.0001) nonlinFreeSurf = /* Non-linear Free Surf. options (-1,0,1,2,3)*/
(PID.TID 0000.0001)                       0
(PID.TID 0000.0001)      -1,0= Off ; 1,2,3= On, 2=+rescale gU,gV, 3=+update cg2d solv.
(PID.TID 0000.0001)     ;
(PID.TID 0000.0001) hFacInf =   /* lower threshold for hFac (nonlinFreeSurf only)*/
(PID.TID 0000.0001)                 2.000000000000000E-01
(PID.TID 0000.0001)     ;
(PID.TID 0000.0001) hFacSup =   /* upper threshold for hFac (nonlinFreeSurf only)*/
(PID.TID 0000.0001)                 2.000000000000000E+00
(PID.TID 0000.0001)     ;
(PID.TID 0000.0001) select_rStar = /* r* Vertical coord. options (=0 r coord.; >0 uses r*)*/
(PID.TID 0000.0001)                       0
(PID.TID 0000.0001)     ;
(PID.TID 0000.0001) useRealFreshWaterFlux = /* Real Fresh Water Flux on/off flag*/
(PID.TID 0000.0001)                   F
(PID.TID 0000.0001)     ;
(PID.TID 0000.0001) temp_EvPrRn = /* Temp. of Evap/Prec/R (UNSET=use local T)(oC)*/
(PID.TID 0000.0001)                 1.234567000000000E+05
(PID.TID 0000.0001)     ;
(PID.TID 0000.0001) salt_EvPrRn = /* Salin. of Evap/Prec/R (UNSET=use local S)(psu)*/
(PID.TID 0000.0001)                 0.000000000000000E+00
(PID.TID 0000.0001)     ;
(PID.TID 0000.0001) selectAddFluid = /* option for mass source/sink of fluid (=0: off) */
(PID.TID 0000.0001)                       0
(PID.TID 0000.0001)     ;
(PID.TID 0000.0001) temp_addMass = /* Temp. of addMass array (UNSET=use local T)(oC)*/
(PID.TID 0000.0001)                 1.234567000000000E+05
(PID.TID 0000.0001)     ;
(PID.TID 0000.0001) salt_addMass = /* Salin. of addMass array (UNSET=use local S)(psu)*/
(PID.TID 0000.0001)                 0.000000000000000E+00
(PID.TID 0000.0001)     ;
(PID.TID 0000.0001) convertFW2Salt = /* convert F.W. Flux to Salt Flux (-1=use local S)(psu)*/
(PID.TID 0000.0001)                 3.500000000000000E+01
(PID.TID 0000.0001)     ;
(PID.TID 0000.0001) use3Dsolver = /* use 3-D pressure solver on/off flag */
(PID.TID 0000.0001)                   F
(PID.TID 0000.0001)     ;
(PID.TID 0000.0001) nonHydrostatic =  /* Non-Hydrostatic on/off flag */
(PID.TID 0000.0001)                   F
(PID.TID 0000.0001)     ;
(PID.TID 0000.0001) nh_Am2 = /* Non-Hydrostatic terms scaling factor */
(PID.TID 0000.0001)                 1.000000000000000E+00
(PID.TID 0000.0001)     ;
(PID.TID 0000.0001) implicitNHPress = /* Non-Hyd Pressure implicit factor (0-1)*/
(PID.TID 0000.0001)                 1.000000000000000E+00
(PID.TID 0000.0001)     ;
(PID.TID 0000.0001) selectNHfreeSurf = /* Non-Hyd (free-)Surface option */
(PID.TID 0000.0001)                       0
(PID.TID 0000.0001)     ;
(PID.TID 0000.0001) quasiHydrostatic = /* Quasi-Hydrostatic on/off flag */
(PID.TID 0000.0001)                   F
(PID.TID 0000.0001)     ;
(PID.TID 0000.0001) calc_wVelocity = /* vertical velocity calculation on/off flag */
(PID.TID 0000.0001)                   F
(PID.TID 0000.0001)     ;
(PID.TID 0000.0001) momStepping =  /* Momentum equation on/off flag */
(PID.TID 0000.0001)                   F
(PID.TID 0000.0001)     ;
(PID.TID 0000.0001) vectorInvariantMomentum= /* Vector-Invariant Momentum on/off */
(PID.TID 0000.0001)                   F
(PID.TID 0000.0001)     ;
(PID.TID 0000.0001) momAdvection =  /* Momentum advection on/off flag */
(PID.TID 0000.0001)                   F
(PID.TID 0000.0001)     ;
(PID.TID 0000.0001) momViscosity =  /* Momentum viscosity on/off flag */
(PID.TID 0000.0001)                   F
(PID.TID 0000.0001)     ;
(PID.TID 0000.0001) momImplVertAdv= /* Momentum implicit vert. advection on/off*/
(PID.TID 0000.0001)                   F
(PID.TID 0000.0001)     ;
(PID.TID 0000.0001) implicitViscosity = /* Implicit viscosity on/off flag */
(PID.TID 0000.0001)                   F
(PID.TID 0000.0001)     ;
(PID.TID 0000.0001) metricTerms =  /* metric-Terms on/off flag */
(PID.TID 0000.0001)                   F
(PID.TID 0000.0001)     ;
(PID.TID 0000.0001) useNHMTerms = /* Non-Hydrostatic Metric-Terms on/off */
(PID.TID 0000.0001)                   F
(PID.TID 0000.0001)     ;
(PID.TID 0000.0001) selectCoriMap = /* Coriolis Map options (0,1,2,3)*/
(PID.TID 0000.0001)                       2
(PID.TID 0000.0001)     0= f-Plane ; 1= Beta-Plane ; 2= Spherical ; 3= read from file
(PID.TID 0000.0001)     ;
(PID.TID 0000.0001) use3dCoriolis = /* 3-D Coriolis on/off flag */
(PID.TID 0000.0001)                   F
(PID.TID 0000.0001)     ;
(PID.TID 0000.0001) useCoriolis =  /* Coriolis on/off flag */
(PID.TID 0000.0001)                   F
(PID.TID 0000.0001)     ;
(PID.TID 0000.0001) useCDscheme =  /* CD scheme on/off flag */
(PID.TID 0000.0001)                   F
(PID.TID 0000.0001)     ;
(PID.TID 0000.0001) useEnergyConservingCoriolis= /* Flx-Form Coriolis scheme flag */
(PID.TID 0000.0001)                   F
(PID.TID 0000.0001)     ;
(PID.TID 0000.0001) useJamartWetPoints= /* Coriolis WetPoints method flag */
(PID.TID 0000.0001)                   F
(PID.TID 0000.0001)     ;
(PID.TID 0000.0001) useJamartMomAdv= /* V.I Non-linear terms Jamart flag */
(PID.TID 0000.0001)                   F
(PID.TID 0000.0001)     ;
(PID.TID 0000.0001) useAbsVorticity= /* V.I Works with f+zeta in Coriolis */
(PID.TID 0000.0001)                   F
(PID.TID 0000.0001)     ;
(PID.TID 0000.0001) selectVortScheme= /* V.I Scheme selector for Vorticity-Term */
(PID.TID 0000.0001)               123456789
(PID.TID 0000.0001)    = 0 : enstrophy (Shallow-Water Eq.) conserving scheme by Sadourny, JAS 75
(PID.TID 0000.0001)    = 1 : same as 0 with modified hFac
(PID.TID 0000.0001)    = 2 : energy conserving scheme (used by Sadourny in JAS 75 paper)
(PID.TID 0000.0001)    = 3 : energy (general) and enstrophy (2D, nonDiv.) conserving scheme
(PID.TID 0000.0001)          from Sadourny (Burridge & Haseler, ECMWF Rep.4, 1977)
(PID.TID 0000.0001)     ;
(PID.TID 0000.0001) upwindVorticity= /* V.I Upwind bias vorticity flag */
(PID.TID 0000.0001)                   F
(PID.TID 0000.0001)     ;
(PID.TID 0000.0001) highOrderVorticity= /* V.I High order vort. advect. flag */
(PID.TID 0000.0001)                   F
(PID.TID 0000.0001)     ;
(PID.TID 0000.0001) upwindShear= /* V.I Upwind vertical Shear advection flag */
(PID.TID 0000.0001)                   F
(PID.TID 0000.0001)     ;
(PID.TID 0000.0001) selectKEscheme= /* V.I Kinetic Energy scheme selector */
(PID.TID 0000.0001)                       0
(PID.TID 0000.0001)     ;
(PID.TID 0000.0001) momForcing =  /* Momentum forcing on/off flag */
(PID.TID 0000.0001)                   F
(PID.TID 0000.0001)     ;
(PID.TID 0000.0001) momPressureForcing =  /* Momentum pressure term on/off flag */
(PID.TID 0000.0001)                   F
(PID.TID 0000.0001)     ;
(PID.TID 0000.0001) implicitIntGravWave= /* Implicit Internal Gravity Wave flag */
(PID.TID 0000.0001)                   F
(PID.TID 0000.0001)     ;
(PID.TID 0000.0001) staggerTimeStep =    /* Stagger time stepping on/off flag */
(PID.TID 0000.0001)                   F
(PID.TID 0000.0001)     ;
(PID.TID 0000.0001) doResetHFactors = /* reset thickness factors @ each time-step */
(PID.TID 0000.0001)                   F
(PID.TID 0000.0001)     ;
(PID.TID 0000.0001) multiDimAdvection =  /* enable/disable Multi-Dim Advection */
(PID.TID 0000.0001)                   T
(PID.TID 0000.0001)     ;
(PID.TID 0000.0001) useMultiDimAdvec =   /* Multi-Dim Advection is/is-not used */
(PID.TID 0000.0001)                   T
(PID.TID 0000.0001)     ;
(PID.TID 0000.0001) implicitDiffusion = /* Implicit Diffusion on/off flag */
(PID.TID 0000.0001)                   F
(PID.TID 0000.0001)     ;
(PID.TID 0000.0001) tempStepping =  /* Temperature equation on/off flag */
(PID.TID 0000.0001)                   T
(PID.TID 0000.0001)     ;
(PID.TID 0000.0001) tempAdvection = /* Temperature advection on/off flag */
(PID.TID 0000.0001)                   T
(PID.TID 0000.0001)     ;
(PID.TID 0000.0001) tempImplVertAdv = /* Temp. implicit vert. advection on/off */
(PID.TID 0000.0001)                   F
(PID.TID 0000.0001)     ;
(PID.TID 0000.0001) tempForcing  =  /* Temperature forcing on/off flag */
(PID.TID 0000.0001)                   T
(PID.TID 0000.0001)     ;
(PID.TID 0000.0001) doThetaClimRelax = /* apply SST relaxation on/off flag */
(PID.TID 0000.0001)                   F
(PID.TID 0000.0001)     ;
(PID.TID 0000.0001) tempIsActiveTr = /* Temp. is a dynamically Active Tracer */
(PID.TID 0000.0001)                   F
(PID.TID 0000.0001)     ;
(PID.TID 0000.0001) saltStepping =  /* Salinity equation on/off flag */
(PID.TID 0000.0001)                   T
(PID.TID 0000.0001)     ;
(PID.TID 0000.0001) saltAdvection = /* Salinity advection on/off flag */
(PID.TID 0000.0001)                   T
(PID.TID 0000.0001)     ;
(PID.TID 0000.0001) saltImplVertAdv = /* Sali. implicit vert. advection on/off */
(PID.TID 0000.0001)                   F
(PID.TID 0000.0001)     ;
(PID.TID 0000.0001) saltForcing  =  /* Salinity forcing on/off flag */
(PID.TID 0000.0001)                   T
(PID.TID 0000.0001)     ;
(PID.TID 0000.0001) doSaltClimRelax = /* apply SSS relaxation on/off flag */
(PID.TID 0000.0001)                   F
(PID.TID 0000.0001)     ;
(PID.TID 0000.0001) saltIsActiveTr = /* Salt  is a dynamically Active Tracer */
(PID.TID 0000.0001)                   F
(PID.TID 0000.0001)     ;
(PID.TID 0000.0001)  readBinaryPrec = /* Precision used for reading binary files */
(PID.TID 0000.0001)                      64
(PID.TID 0000.0001)     ;
(PID.TID 0000.0001) writeBinaryPrec = /* Precision used for writing binary files */
(PID.TID 0000.0001)                      64
(PID.TID 0000.0001)     ;
(PID.TID 0000.0001)  globalFiles = /* write "global" (=not per tile) files */
(PID.TID 0000.0001)                   F
(PID.TID 0000.0001)     ;
(PID.TID 0000.0001)  useSingleCpuIO = /* only master MPI process does I/O */
(PID.TID 0000.0001)                   F
(PID.TID 0000.0001)     ;
(PID.TID 0000.0001) /* debLev[*]  : level of debug & auxiliary message printing */
(PID.TID 0000.0001) debLevZero =  0 ; /* level of disabled aux. msg printing */
(PID.TID 0000.0001)    debLevA =  1 ; /* level of minimum  aux. msg printing */
(PID.TID 0000.0001)    debLevB =  2 ; /* level of low aux. print (report read-file opening)*/
(PID.TID 0000.0001)    debLevC =  3 ; /* level of moderate debug prt (most pkgs debug msg) */
(PID.TID 0000.0001)    debLevD =  4 ; /* level of enhanced debug prt (add DEBUG_STATS prt) */
(PID.TID 0000.0001)    debLevE =  5 ; /* level of extensive debug printing */
(PID.TID 0000.0001) debugLevel =  /* select debug printing level */
(PID.TID 0000.0001)                       2
(PID.TID 0000.0001)     ;
(PID.TID 0000.0001) //
(PID.TID 0000.0001) // Elliptic solver(s) paramters ( PARM02 in namelist )
(PID.TID 0000.0001) //
(PID.TID 0000.0001) cg2dMaxIters =   /* Upper limit on 2d con. grad iterations  */
(PID.TID 0000.0001)                     600
(PID.TID 0000.0001)     ;
(PID.TID 0000.0001) cg2dChkResFreq =   /* 2d con. grad convergence test frequency */
(PID.TID 0000.0001)                       1
(PID.TID 0000.0001)     ;
(PID.TID 0000.0001) cg2dUseMinResSol= /* use cg2d last-iter(=0) / min-resid.(=1) solution */
(PID.TID 0000.0001)                       0
(PID.TID 0000.0001)     ;
(PID.TID 0000.0001) cg2dTargetResidual =   /* 2d con. grad target residual  */
(PID.TID 0000.0001)                 1.000000000000000E-12
(PID.TID 0000.0001)     ;
(PID.TID 0000.0001) cg2dTargetResWunit =   /* CG2d target residual [W units] */
(PID.TID 0000.0001)                -1.000000000000000E+00
(PID.TID 0000.0001)     ;
(PID.TID 0000.0001) cg2dPreCondFreq =   /* Freq. for updating cg2d preconditioner */
(PID.TID 0000.0001)                       1
(PID.TID 0000.0001)     ;
(PID.TID 0000.0001) useSRCGSolver =  /* use single reduction CG solver(s) */
(PID.TID 0000.0001)                   F
(PID.TID 0000.0001)     ;
(PID.TID 0000.0001) printResidualFreq = /* Freq. for printing CG residual */
(PID.TID 0000.0001)                       0
(PID.TID 0000.0001)     ;
(PID.TID 0000.0001) //
(PID.TID 0000.0001) // Time stepping paramters ( PARM03 in namelist )
(PID.TID 0000.0001) //
(PID.TID 0000.0001) deltaTMom =   /* Momentum equation timestep ( s ) */
(PID.TID 0000.0001)                 2.700000000000000E+03
(PID.TID 0000.0001)     ;
(PID.TID 0000.0001) deltaTFreeSurf = /* FreeSurface equation timestep ( s ) */
(PID.TID 0000.0001)                 2.700000000000000E+03
(PID.TID 0000.0001)     ;
(PID.TID 0000.0001) dTtracerLev =  /* Tracer equation timestep ( s ) */
(PID.TID 0000.0001)                 2.700000000000000E+03       /* K =  1 */
(PID.TID 0000.0001)     ;
(PID.TID 0000.0001) deltaTClock  =   /* Model clock timestep ( s ) */
(PID.TID 0000.0001)                 2.700000000000000E+03
(PID.TID 0000.0001)     ;
(PID.TID 0000.0001) cAdjFreq =   /* Convective adjustment interval ( s ) */
(PID.TID 0000.0001)                 0.000000000000000E+00
(PID.TID 0000.0001)     ;
(PID.TID 0000.0001) momForcingOutAB = /* =1: take Momentum Forcing out of Adams-Bash. stepping */
(PID.TID 0000.0001)                       0
(PID.TID 0000.0001)     ;
(PID.TID 0000.0001) tracForcingOutAB = /* =1: take T,S,pTr Forcing out of Adams-Bash. stepping */
(PID.TID 0000.0001)                       0
(PID.TID 0000.0001)     ;
(PID.TID 0000.0001) momDissip_In_AB = /* put Dissipation Tendency in Adams-Bash. stepping */
(PID.TID 0000.0001)                   T
(PID.TID 0000.0001)     ;
(PID.TID 0000.0001) doAB_onGtGs = /* apply AB on Tendencies (rather than on T,S)*/
(PID.TID 0000.0001)                   T
(PID.TID 0000.0001)     ;
(PID.TID 0000.0001) abEps =   /* Adams-Bashforth-2 stabilizing weight */
(PID.TID 0000.0001)                 1.000000000000000E-01
(PID.TID 0000.0001)     ;
(PID.TID 0000.0001) pickupStrictlyMatch= /* stop if pickup do not strictly match */
(PID.TID 0000.0001)                   T
(PID.TID 0000.0001)     ;
(PID.TID 0000.0001) nIter0   =   /* Run starting timestep number */
(PID.TID 0000.0001)                       0
(PID.TID 0000.0001)     ;
(PID.TID 0000.0001) nTimeSteps = /* Number of timesteps */
(PID.TID 0000.0001)                     192
(PID.TID 0000.0001)     ;
(PID.TID 0000.0001) nEndIter =   /* Run ending timestep number */
(PID.TID 0000.0001)                     192
(PID.TID 0000.0001)     ;
(PID.TID 0000.0001) baseTime =   /* Model base time ( s ) */
(PID.TID 0000.0001)                 0.000000000000000E+00
(PID.TID 0000.0001)     ;
(PID.TID 0000.0001) startTime =  /* Run start time ( s ) */
(PID.TID 0000.0001)                 0.000000000000000E+00
(PID.TID 0000.0001)     ;
(PID.TID 0000.0001) endTime  =   /* Integration ending time ( s ) */
(PID.TID 0000.0001)                 5.184000000000000E+05
(PID.TID 0000.0001)     ;
(PID.TID 0000.0001) pChkPtFreq = /* Permanent restart/pickup file interval ( s ) */
(PID.TID 0000.0001)                 0.000000000000000E+00
(PID.TID 0000.0001)     ;
(PID.TID 0000.0001) chkPtFreq  = /* Rolling restart/pickup file interval ( s ) */
(PID.TID 0000.0001)                 0.000000000000000E+00
(PID.TID 0000.0001)     ;
(PID.TID 0000.0001) pickup_write_mdsio =   /* Model IO flag. */
(PID.TID 0000.0001)                   T
(PID.TID 0000.0001)     ;
(PID.TID 0000.0001) pickup_read_mdsio =   /* Model IO flag. */
(PID.TID 0000.0001)                   T
(PID.TID 0000.0001)     ;
(PID.TID 0000.0001) pickup_write_immed =   /* Model IO flag. */
(PID.TID 0000.0001)                   F
(PID.TID 0000.0001)     ;
(PID.TID 0000.0001) writePickupAtEnd =   /* Model IO flag. */
(PID.TID 0000.0001)                   T
(PID.TID 0000.0001)     ;
(PID.TID 0000.0001) dumpFreq =   /* Model state write out interval ( s ). */
(PID.TID 0000.0001)                 0.000000000000000E+00
(PID.TID 0000.0001)     ;
(PID.TID 0000.0001) dumpInitAndLast= /* write out Initial & Last iter. model state */
(PID.TID 0000.0001)                   T
(PID.TID 0000.0001)     ;
(PID.TID 0000.0001) snapshot_mdsio =   /* Model IO flag. */
(PID.TID 0000.0001)                   T
(PID.TID 0000.0001)     ;
(PID.TID 0000.0001) monitorFreq =   /* Monitor output interval ( s ). */
(PID.TID 0000.0001)                 2.160000000000000E+04
(PID.TID 0000.0001)     ;
(PID.TID 0000.0001) monitorSelect = /* select group of variables to monitor */
(PID.TID 0000.0001)                       1
(PID.TID 0000.0001)     ;
(PID.TID 0000.0001) monitor_stdio =   /* Model IO flag. */
(PID.TID 0000.0001)                   T
(PID.TID 0000.0001)     ;
(PID.TID 0000.0001) externForcingPeriod =   /* forcing period (s) */
(PID.TID 0000.0001)                 0.000000000000000E+00
(PID.TID 0000.0001)     ;
(PID.TID 0000.0001) externForcingCycle =   /* period of the cyle (s). */
(PID.TID 0000.0001)                 0.000000000000000E+00
(PID.TID 0000.0001)     ;
(PID.TID 0000.0001) tauThetaClimRelax =   /* relaxation time scale (s) */
(PID.TID 0000.0001)                 0.000000000000000E+00
(PID.TID 0000.0001)     ;
(PID.TID 0000.0001) tauSaltClimRelax =   /* relaxation time scale (s) */
(PID.TID 0000.0001)                 0.000000000000000E+00
(PID.TID 0000.0001)     ;
(PID.TID 0000.0001) latBandClimRelax =   /* max. Lat. where relaxation */
(PID.TID 0000.0001)                 1.800000000000000E+02
(PID.TID 0000.0001)     ;
(PID.TID 0000.0001) //
(PID.TID 0000.0001) // Gridding paramters ( PARM04 in namelist )
(PID.TID 0000.0001) //
(PID.TID 0000.0001) usingCartesianGrid = /* Cartesian coordinates flag ( True/False ) */
(PID.TID 0000.0001)                   F
(PID.TID 0000.0001)     ;
(PID.TID 0000.0001) usingCylindricalGrid = /* Cylindrical coordinates flag ( True/False ) */
(PID.TID 0000.0001)                   F
(PID.TID 0000.0001)     ;
(PID.TID 0000.0001) usingSphericalPolarGrid = /* Spherical coordinates flag ( True/False ) */
(PID.TID 0000.0001)                   F
(PID.TID 0000.0001)     ;
(PID.TID 0000.0001) usingCurvilinearGrid = /* Curvilinear coordinates flag ( True/False ) */
(PID.TID 0000.0001)                   T
(PID.TID 0000.0001)     ;
(PID.TID 0000.0001) selectSigmaCoord = /* Hybrid-Sigma Vert. Coordinate option */
(PID.TID 0000.0001)                       0
(PID.TID 0000.0001)     ;
(PID.TID 0000.0001) Ro_SeaLevel = /* r(1) ( units of r ==  m ) */
(PID.TID 0000.0001)                 1.000000000000000E+05
(PID.TID 0000.0001)     ;
(PID.TID 0000.0001) rSigmaBnd = /* r/sigma transition ( units of r ==  m ) */
(PID.TID 0000.0001)                 1.234567000000000E+05
(PID.TID 0000.0001)     ;
(PID.TID 0000.0001) rkSign =   /* index orientation relative to vertical coordinate */
(PID.TID 0000.0001)                -1.000000000000000E+00
(PID.TID 0000.0001)     ;
(PID.TID 0000.0001) gravitySign = /* gravity orientation relative to vertical coordinate */
(PID.TID 0000.0001)                -1.000000000000000E+00
(PID.TID 0000.0001)     ;
(PID.TID 0000.0001) mass2rUnit = /* convert mass per unit area [kg/m2] to r-units [m] */
(PID.TID 0000.0001)                 1.000200040008002E-03
(PID.TID 0000.0001)     ;
(PID.TID 0000.0001) rUnit2mass = /* convert r-units [m] to mass per unit area [kg/m2] */
(PID.TID 0000.0001)                 9.998000000000000E+02
(PID.TID 0000.0001)     ;
(PID.TID 0000.0001) drC =   /* C spacing ( units of r ) */
(PID.TID 0000.0001)                 5.000000000000000E+04       /* K =  1 */
(PID.TID 0000.0001)     ;
(PID.TID 0000.0001) drF =   /* W spacing ( units of r ) */
(PID.TID 0000.0001)                 1.000000000000000E+05       /* K =  1 */
(PID.TID 0000.0001)     ;
(PID.TID 0000.0001) radius_fromHorizGrid = /* sphere Radius of input horiz. grid */
(PID.TID 0000.0001)                 6.370000000000000E+06
(PID.TID 0000.0001)     ;
(PID.TID 0000.0001) rSphere =  /* Radius ( ignored - cartesian, m - spherical ) */
(PID.TID 0000.0001)                 6.370000000000000E+06
(PID.TID 0000.0001)     ;
(PID.TID 0000.0001) deepAtmosphere = /* Deep/Shallow Atmosphere flag (True/False) */
(PID.TID 0000.0001)                   F
(PID.TID 0000.0001)     ;
(PID.TID 0000.0001) xC =  /* xC(:,1,:,1) : P-point X coord ( deg. or m if cartesian) */
(PID.TID 0000.0001)                -4.439521994760536E+01,      /* I =  1 */
(PID.TID 0000.0001)                -4.295641272275883E+01,      /* I =  2 */
(PID.TID 0000.0001)                -4.122055553388957E+01,      /* I =  3 */
(PID.TID 0000.0001)                -3.923446288487304E+01,      /* I =  4 */
(PID.TID 0000.0001)                -3.702585158682200E+01,      /* I =  5 */
(PID.TID 0000.0001)                -3.461179367094151E+01,      /* I =  6 */
(PID.TID 0000.0001)                -3.200434569041793E+01,      /* I =  7 */
(PID.TID 0000.0001)                -2.921355965632675E+01,      /* I =  8 */
(PID.TID 0000.0001)                -2.624932223028290E+01,      /* I =  9 */
(PID.TID 0000.0001)                -2.312261250426344E+01,      /* I = 10 */
(PID.TID 0000.0001)                -1.984640717127058E+01,      /* I = 11 */
(PID.TID 0000.0001)                -1.643630800555134E+01,      /* I = 12 */
(PID.TID 0000.0001)                -1.291089806302069E+01,      /* I = 13 */
(PID.TID 0000.0001)                -9.291807802719402E+00,      /* I = 14 */
(PID.TID 0000.0001)                -5.603475335822332E+00,      /* I = 15 */
(PID.TID 0000.0001)                -1.872608513033445E+00,      /* I = 16 */
(PID.TID 0000.0001)                 1.872608513033445E+00,      /* I = 17 */
(PID.TID 0000.0001)                 5.603475335822332E+00,      /* I = 18 */
(PID.TID 0000.0001)                 9.291807802719402E+00,      /* I = 19 */
(PID.TID 0000.0001)                 1.291089806302069E+01,      /* I = 20 */
(PID.TID 0000.0001)                 1.643630800555134E+01,      /* I = 21 */
(PID.TID 0000.0001)                 1.984640717127058E+01,      /* I = 22 */
(PID.TID 0000.0001)                 2.312261250426344E+01,      /* I = 23 */
(PID.TID 0000.0001)                 2.624932223028290E+01,      /* I = 24 */
(PID.TID 0000.0001)                 2.921355965632675E+01,      /* I = 25 */
(PID.TID 0000.0001)                 3.200434569041793E+01,      /* I = 26 */
(PID.TID 0000.0001)                 3.461179367094151E+01,      /* I = 27 */
(PID.TID 0000.0001)                 3.702585158682200E+01,      /* I = 28 */
(PID.TID 0000.0001)                 3.923446288487304E+01,      /* I = 29 */
(PID.TID 0000.0001)                 4.122055553388957E+01,      /* I = 30 */
(PID.TID 0000.0001)                 4.295641272275883E+01,      /* I = 31 */
(PID.TID 0000.0001)                 4.439521994760536E+01,      /* I = 32 */
(PID.TID 0000.0001)                 4.560478005239464E+01,      /* I = 33 */
(PID.TID 0000.0001)                 4.704358727724117E+01,      /* I = 34 */
(PID.TID 0000.0001)                 4.877944446611043E+01,      /* I = 35 */
(PID.TID 0000.0001)                 5.076553711512697E+01,      /* I = 36 */
(PID.TID 0000.0001)                 5.297414841317801E+01,      /* I = 37 */
(PID.TID 0000.0001)                 5.538820632905850E+01,      /* I = 38 */
(PID.TID 0000.0001)                 5.799565430958209E+01,      /* I = 39 */
(PID.TID 0000.0001)                 6.078644034367325E+01,      /* I = 40 */
(PID.TID 0000.0001)                 6.375067776971711E+01,      /* I = 41 */
(PID.TID 0000.0001)                 6.687738749573657E+01,      /* I = 42 */
(PID.TID 0000.0001)                 7.015359282872943E+01,      /* I = 43 */
(PID.TID 0000.0001)                 7.356369199444866E+01,      /* I = 44 */
(PID.TID 0000.0001)                 7.708910193697932E+01,      /* I = 45 */
(PID.TID 0000.0001)                 8.070819219728060E+01,      /* I = 46 */
(PID.TID 0000.0001)                 8.439652466417766E+01,      /* I = 47 */
(PID.TID 0000.0001)                 8.812739148696656E+01,      /* I = 48 */
(PID.TID 0000.0001)                 9.187260851303344E+01,      /* I = 49 */
(PID.TID 0000.0001)                 9.560347533582234E+01,      /* I = 50 */
(PID.TID 0000.0001)                 9.929180780271940E+01,      /* I = 51 */
(PID.TID 0000.0001)                 1.029108980630207E+02,      /* I = 52 */
(PID.TID 0000.0001)                 1.064363080055513E+02,      /* I = 53 */
(PID.TID 0000.0001)                 1.098464071712706E+02,      /* I = 54 */
(PID.TID 0000.0001)                 1.131226125042634E+02,      /* I = 55 */
(PID.TID 0000.0001)                 1.162493222302829E+02,      /* I = 56 */
(PID.TID 0000.0001)                 1.192135596563268E+02,      /* I = 57 */
(PID.TID 0000.0001)                 1.220043456904179E+02,      /* I = 58 */
(PID.TID 0000.0001)                 1.246117936709415E+02,      /* I = 59 */
(PID.TID 0000.0001)                 1.270258515868220E+02,      /* I = 60 */
(PID.TID 0000.0001)                 1.292344628848730E+02,      /* I = 61 */
(PID.TID 0000.0001)                 1.312205555338896E+02,      /* I = 62 */
(PID.TID 0000.0001)                 1.329564127227588E+02,      /* I = 63 */
(PID.TID 0000.0001)                 1.343952199476053E+02       /* I = 64 */
(PID.TID 0000.0001)     ;
(PID.TID 0000.0001) yC =  /* yC(1,:,1,:) : P-point Y coord ( deg. or m if cartesian) */
(PID.TID 0000.0001)                -3.497677942598243E+01,      /* J =  1 */
(PID.TID 0000.0001)                -3.374005967394886E+01,      /* J =  2 */
(PID.TID 0000.0001)                -3.220655175667454E+01,      /* J =  3 */
(PID.TID 0000.0001)      . . .
(PID.TID 0000.0001)                 1.462993396899330E+01,      /* J = 22 */
(PID.TID 0000.0001)                 1.715743888281371E+01,      /* J = 23 */
(PID.TID 0000.0001)                 1.961768597440146E+01,      /* J = 24 */
(PID.TID 0000.0001)                 2.199915808312262E+01,      /* J = 25 */
(PID.TID 0000.0001)                 2.428936657094636E+01,      /* J = 26 */
(PID.TID 0000.0001)                 2.647426640173173E+01,      /* J = 27 */
(PID.TID 0000.0001)      . . .
(PID.TID 0000.0001)                 4.593400691539411E+01,      /* J = 46 */
(PID.TID 0000.0001)                 4.620245931747523E+01,      /* J = 47 */
(PID.TID 0000.0001)                 4.633829375140037E+01,      /* J = 48 */
(PID.TID 0000.0001)                 4.633829375140037E+01,      /* J = 49 */
(PID.TID 0000.0001)                 4.620245931747523E+01,      /* J = 50 */
(PID.TID 0000.0001)                 4.593400691539411E+01,      /* J = 51 */
(PID.TID 0000.0001)      . . .
(PID.TID 0000.0001)                 3.829470861602689E+01,      /* J = 70 */
(PID.TID 0000.0001)                 3.909085412035898E+01,      /* J = 71 */
(PID.TID 0000.0001)                 3.986969002907713E+01,      /* J = 72 */
(PID.TID 0000.0001)                 4.061327788804389E+01,      /* J = 73 */
(PID.TID 0000.0001)                 4.130511663390267E+01,      /* J = 74 */
(PID.TID 0000.0001)                 4.193000837814793E+01,      /* J = 75 */
(PID.TID 0000.0001)      . . .
(PID.TID 0000.0001)                 3.602015489632439E+01,      /* J = 94 */
(PID.TID 0000.0001)                 3.540525012703330E+01,      /* J = 95 */
(PID.TID 0000.0001)                 3.497677942598243E+01       /* J = 96 */
(PID.TID 0000.0001)     ;
(PID.TID 0000.0001) rcoord = /* P-point R coordinate (  units of r ) */
(PID.TID 0000.0001)                 5.000000000000000E+04       /* K =  1 */
(PID.TID 0000.0001)     ;
(PID.TID 0000.0001) rF =   /* W-Interf. R coordinate (  units of r ) */
(PID.TID 0000.0001)                 1.000000000000000E+05,      /* K =  1 */
(PID.TID 0000.0001)                 0.000000000000000E+00       /* K =  2 */
(PID.TID 0000.0001)     ;
(PID.TID 0000.0001) deepFacC = /* deep-model grid factor @ cell-Center (-) */
(PID.TID 0000.0001)                 1.000000000000000E+00       /* K =  1 */
(PID.TID 0000.0001)     ;
(PID.TID 0000.0001) deepFacF = /* deep-model grid factor @ W-Interface (-) */
(PID.TID 0000.0001)     2 @  1.000000000000000E+00              /* K =  1:  2 */
(PID.TID 0000.0001)     ;
(PID.TID 0000.0001) rVel2wUnit = /* convert units: rVel -> wSpeed (=1 if z-coord)*/
(PID.TID 0000.0001)     2 @  1.000000000000000E+00              /* K =  1:  2 */
(PID.TID 0000.0001)     ;
(PID.TID 0000.0001) wUnit2rVel = /* convert units: wSpeed -> rVel (=1 if z-coord)*/
(PID.TID 0000.0001)     2 @  1.000000000000000E+00              /* K =  1:  2 */
(PID.TID 0000.0001)     ;
(PID.TID 0000.0001) dBdrRef = /* Vertical grad. of reference buoyancy [(m/s/r)^2] */
(PID.TID 0000.0001)                 0.000000000000000E+00       /* K =  1 */
(PID.TID 0000.0001)     ;
(PID.TID 0000.0001) rotateGrid = /* use rotated grid ( True/False ) */
(PID.TID 0000.0001)                   F
(PID.TID 0000.0001)     ;
(PID.TID 0000.0001) phiEuler = /* Euler angle, rotation about original z-coordinate [rad] */
(PID.TID 0000.0001)                 0.000000000000000E+00
(PID.TID 0000.0001)     ;
(PID.TID 0000.0001) thetaEuler = /* Euler angle, rotation about new x-coordinate [rad] */
(PID.TID 0000.0001)                 0.000000000000000E+00
(PID.TID 0000.0001)     ;
(PID.TID 0000.0001) psiEuler = /* Euler angle, rotation about new z-coordinate [rad] */
(PID.TID 0000.0001)                 0.000000000000000E+00
(PID.TID 0000.0001)     ;
(PID.TID 0000.0001) dxF =  /* dxF(:,1,:,1) ( units: m ) */
(PID.TID 0000.0001)                 1.202082051331828E+05,      /* I =  1 */
(PID.TID 0000.0001)                 1.563594089971120E+05,      /* I =  2 */
(PID.TID 0000.0001)                 1.835530058121492E+05,      /* I =  3 */
(PID.TID 0000.0001)                 2.045883481718707E+05,      /* I =  4 */
(PID.TID 0000.0001)                 2.218350349844185E+05,      /* I =  5 */
(PID.TID 0000.0001)                 2.364352994647058E+05,      /* I =  6 */
(PID.TID 0000.0001)                 2.490022710862746E+05,      /* I =  7 */
(PID.TID 0000.0001)                 2.598919724358304E+05,      /* I =  8 */
(PID.TID 0000.0001)                 2.693210245495156E+05,      /* I =  9 */
(PID.TID 0000.0001)                 2.774243179696503E+05,      /* I = 10 */
(PID.TID 0000.0001)                 2.842862532064524E+05,      /* I = 11 */
(PID.TID 0000.0001)                 2.899590699694043E+05,      /* I = 12 */
(PID.TID 0000.0001)                 2.944742915095688E+05,      /* I = 13 */
(PID.TID 0000.0001)                 2.978501920522794E+05,      /* I = 14 */
(PID.TID 0000.0001)                 3.000967749619962E+05,      /* I = 15 */
(PID.TID 0000.0001)     2 @  3.012190981969055E+05,             /* I = 16: 17 */
(PID.TID 0000.0001)                 3.000967749619962E+05,      /* I = 18 */
(PID.TID 0000.0001)                 2.978501920522794E+05,      /* I = 19 */
(PID.TID 0000.0001)                 2.944742915095688E+05,      /* I = 20 */
(PID.TID 0000.0001)                 2.899590699694043E+05,      /* I = 21 */
(PID.TID 0000.0001)                 2.842862532064524E+05,      /* I = 22 */
(PID.TID 0000.0001)                 2.774243179696503E+05,      /* I = 23 */
(PID.TID 0000.0001)                 2.693210245495156E+05,      /* I = 24 */
(PID.TID 0000.0001)                 2.598919724358304E+05,      /* I = 25 */
(PID.TID 0000.0001)                 2.490022710862746E+05,      /* I = 26 */
(PID.TID 0000.0001)                 2.364352994647058E+05,      /* I = 27 */
(PID.TID 0000.0001)                 2.218350349844185E+05,      /* I = 28 */
(PID.TID 0000.0001)                 2.045883481718707E+05,      /* I = 29 */
(PID.TID 0000.0001)                 1.835530058121492E+05,      /* I = 30 */
(PID.TID 0000.0001)                 1.563594089971120E+05,      /* I = 31 */
(PID.TID 0000.0001)     2 @  1.202082051331828E+05,             /* I = 32: 33 */
(PID.TID 0000.0001)                 1.563594089971120E+05,      /* I = 34 */
(PID.TID 0000.0001)                 1.835530058121492E+05,      /* I = 35 */
(PID.TID 0000.0001)                 2.045883481718707E+05,      /* I = 36 */
(PID.TID 0000.0001)                 2.218350349844185E+05,      /* I = 37 */
(PID.TID 0000.0001)                 2.364352994647058E+05,      /* I = 38 */
(PID.TID 0000.0001)                 2.490022710862746E+05,      /* I = 39 */
(PID.TID 0000.0001)                 2.598919724358304E+05,      /* I = 40 */
(PID.TID 0000.0001)                 2.693210245495156E+05,      /* I = 41 */
(PID.TID 0000.0001)                 2.774243179696503E+05,      /* I = 42 */
(PID.TID 0000.0001)                 2.842862532064524E+05,      /* I = 43 */
(PID.TID 0000.0001)                 2.899590699694043E+05,      /* I = 44 */
(PID.TID 0000.0001)                 2.944742915095688E+05,      /* I = 45 */
(PID.TID 0000.0001)                 2.978501920522794E+05,      /* I = 46 */
(PID.TID 0000.0001)                 3.000967749619962E+05,      /* I = 47 */
(PID.TID 0000.0001)     2 @  3.012190981969055E+05,             /* I = 48: 49 */
(PID.TID 0000.0001)                 3.000967749619962E+05,      /* I = 50 */
(PID.TID 0000.0001)                 2.978501920522794E+05,      /* I = 51 */
(PID.TID 0000.0001)                 2.944742915095688E+05,      /* I = 52 */
(PID.TID 0000.0001)                 2.899590699694043E+05,      /* I = 53 */
(PID.TID 0000.0001)                 2.842862532064524E+05,      /* I = 54 */
(PID.TID 0000.0001)                 2.774243179696503E+05,      /* I = 55 */
(PID.TID 0000.0001)                 2.693210245495156E+05,      /* I = 56 */
(PID.TID 0000.0001)                 2.598919724358304E+05,      /* I = 57 */
(PID.TID 0000.0001)                 2.490022710862746E+05,      /* I = 58 */
(PID.TID 0000.0001)                 2.364352994647058E+05,      /* I = 59 */
(PID.TID 0000.0001)                 2.218350349844185E+05,      /* I = 60 */
(PID.TID 0000.0001)                 2.045883481718707E+05,      /* I = 61 */
(PID.TID 0000.0001)                 1.835530058121492E+05,      /* I = 62 */
(PID.TID 0000.0001)                 1.563594089971120E+05,      /* I = 63 */
(PID.TID 0000.0001)                 1.202082051331828E+05       /* I = 64 */
(PID.TID 0000.0001)     ;
(PID.TID 0000.0001) dxF =  /* dxF(1,:,1,:) ( units: m ) */
(PID.TID 0000.0001)                 1.202082051331828E+05,      /* J =  1 */
(PID.TID 0000.0001)                 1.572908084538706E+05,      /* J =  2 */
(PID.TID 0000.0001)                 1.840412227747703E+05,      /* J =  3 */
(PID.TID 0000.0001)      . . .
(PID.TID 0000.0001)                 2.843615645344775E+05,      /* J = 22 */
(PID.TID 0000.0001)                 2.775055554645015E+05,      /* J = 23 */
(PID.TID 0000.0001)                 2.694110134598581E+05,      /* J = 24 */
(PID.TID 0000.0001)                 2.599949918261881E+05,      /* J = 25 */
(PID.TID 0000.0001)                 2.491250781852558E+05,      /* J = 26 */
(PID.TID 0000.0001)                 2.365892017348392E+05,      /* J = 27 */
(PID.TID 0000.0001)      . . .
(PID.TID 0000.0001)                 2.979171143158405E+05,      /* J = 46 */
(PID.TID 0000.0001)                 3.001626787528886E+05,      /* J = 47 */
(PID.TID 0000.0001)                 3.012844832048790E+05,      /* J = 48 */
(PID.TID 0000.0001)                 3.012844832048790E+05,      /* J = 49 */
(PID.TID 0000.0001)                 3.001626787528886E+05,      /* J = 50 */
(PID.TID 0000.0001)                 2.979171143158405E+05,      /* J = 51 */
(PID.TID 0000.0001)      . . .
(PID.TID 0000.0001)                 2.365892017348392E+05,      /* J = 70 */
(PID.TID 0000.0001)                 2.491250781852558E+05,      /* J = 71 */
(PID.TID 0000.0001)                 2.599949918261881E+05,      /* J = 72 */
(PID.TID 0000.0001)                 2.694110134598581E+05,      /* J = 73 */
(PID.TID 0000.0001)                 2.775055554645015E+05,      /* J = 74 */
(PID.TID 0000.0001)                 2.843615645344775E+05,      /* J = 75 */
(PID.TID 0000.0001)      . . .
(PID.TID 0000.0001)                 1.840412227747703E+05,      /* J = 94 */
(PID.TID 0000.0001)                 1.572908084538706E+05,      /* J = 95 */
(PID.TID 0000.0001)                 1.202082051331828E+05       /* J = 96 */
(PID.TID 0000.0001)     ;
(PID.TID 0000.0001) dyF =  /* dyF(:,1,:,1) ( units: m ) */
(PID.TID 0000.0001)                 1.202082051331828E+05,      /* I =  1 */
(PID.TID 0000.0001)                 1.572908084538706E+05,      /* I =  2 */
(PID.TID 0000.0001)                 1.840412227747703E+05,      /* I =  3 */
(PID.TID 0000.0001)                 2.048868197919576E+05,      /* I =  4 */
(PID.TID 0000.0001)                 2.220405216043041E+05,      /* I =  5 */
(PID.TID 0000.0001)                 2.365892017348392E+05,      /* I =  6 */
(PID.TID 0000.0001)                 2.491250781852558E+05,      /* I =  7 */
(PID.TID 0000.0001)                 2.599949918261881E+05,      /* I =  8 */
(PID.TID 0000.0001)                 2.694110134598581E+05,      /* I =  9 */
(PID.TID 0000.0001)                 2.775055554645015E+05,      /* I = 10 */
(PID.TID 0000.0001)                 2.843615645344775E+05,      /* I = 11 */
(PID.TID 0000.0001)                 2.900303768613599E+05,      /* I = 12 */
(PID.TID 0000.0001)                 2.945429307892709E+05,      /* I = 13 */
(PID.TID 0000.0001)                 2.979171143158405E+05,      /* I = 14 */
(PID.TID 0000.0001)                 3.001626787528886E+05,      /* I = 15 */
(PID.TID 0000.0001)     2 @  3.012844832048790E+05,             /* I = 16: 17 */
(PID.TID 0000.0001)                 3.001626787528886E+05,      /* I = 18 */
(PID.TID 0000.0001)                 2.979171143158405E+05,      /* I = 19 */
(PID.TID 0000.0001)                 2.945429307892709E+05,      /* I = 20 */
(PID.TID 0000.0001)                 2.900303768613599E+05,      /* I = 21 */
(PID.TID 0000.0001)                 2.843615645344775E+05,      /* I = 22 */
(PID.TID 0000.0001)                 2.775055554645015E+05,      /* I = 23 */
(PID.TID 0000.0001)                 2.694110134598581E+05,      /* I = 24 */
(PID.TID 0000.0001)                 2.599949918261881E+05,      /* I = 25 */
(PID.TID 0000.0001)                 2.491250781852558E+05,      /* I = 26 */
(PID.TID 0000.0001)                 2.365892017348392E+05,      /* I = 27 */
(PID.TID 0000.0001)                 2.220405216043041E+05,      /* I = 28 */
(PID.TID 0000.0001)                 2.048868197919576E+05,      /* I = 29 */
(PID.TID 0000.0001)                 1.840412227747703E+05,      /* I = 30 */
(PID.TID 0000.0001)                 1.572908084538706E+05,      /* I = 31 */
(PID.TID 0000.0001)     2 @  1.202082051331828E+05,             /* I = 32: 33 */
(PID.TID 0000.0001)                 1.572908084538706E+05,      /* I = 34 */
(PID.TID 0000.0001)                 1.840412227747703E+05,      /* I = 35 */
(PID.TID 0000.0001)                 2.048868197919576E+05,      /* I = 36 */
(PID.TID 0000.0001)                 2.220405216043041E+05,      /* I = 37 */
(PID.TID 0000.0001)                 2.365892017348392E+05,      /* I = 38 */
(PID.TID 0000.0001)                 2.491250781852558E+05,      /* I = 39 */
(PID.TID 0000.0001)                 2.599949918261881E+05,      /* I = 40 */
(PID.TID 0000.0001)                 2.694110134598581E+05,      /* I = 41 */
(PID.TID 0000.0001)                 2.775055554645015E+05,      /* I = 42 */
(PID.TID 0000.0001)                 2.843615645344775E+05,      /* I = 43 */
(PID.TID 0000.0001)                 2.900303768613599E+05,      /* I = 44 */
(PID.TID 0000.0001)                 2.945429307892709E+05,      /* I = 45 */
(PID.TID 0000.0001)                 2.979171143158405E+05,      /* I = 46 */
(PID.TID 0000.0001)                 3.001626787528886E+05,      /* I = 47 */
(PID.TID 0000.0001)     2 @  3.012844832048790E+05,             /* I = 48: 49 */
(PID.TID 0000.0001)                 3.001626787528886E+05,      /* I = 50 */
(PID.TID 0000.0001)                 2.979171143158405E+05,      /* I = 51 */
(PID.TID 0000.0001)                 2.945429307892709E+05,      /* I = 52 */
(PID.TID 0000.0001)                 2.900303768613599E+05,      /* I = 53 */
(PID.TID 0000.0001)                 2.843615645344775E+05,      /* I = 54 */
(PID.TID 0000.0001)                 2.775055554645015E+05,      /* I = 55 */
(PID.TID 0000.0001)                 2.694110134598581E+05,      /* I = 56 */
(PID.TID 0000.0001)                 2.599949918261881E+05,      /* I = 57 */
(PID.TID 0000.0001)                 2.491250781852558E+05,      /* I = 58 */
(PID.TID 0000.0001)                 2.365892017348392E+05,      /* I = 59 */
(PID.TID 0000.0001)                 2.220405216043041E+05,      /* I = 60 */
(PID.TID 0000.0001)                 2.048868197919576E+05,      /* I = 61 */
(PID.TID 0000.0001)                 1.840412227747703E+05,      /* I = 62 */
(PID.TID 0000.0001)                 1.572908084538706E+05,      /* I = 63 */
(PID.TID 0000.0001)                 1.202082051331828E+05       /* I = 64 */
(PID.TID 0000.0001)     ;
(PID.TID 0000.0001) dyF =  /* dyF(1,:,1,:) ( units: m ) */
(PID.TID 0000.0001)                 1.202082051331828E+05,      /* J =  1 */
(PID.TID 0000.0001)                 1.563594089971120E+05,      /* J =  2 */
(PID.TID 0000.0001)                 1.835530058121492E+05,      /* J =  3 */
(PID.TID 0000.0001)      . . .
(PID.TID 0000.0001)                 2.842862532064524E+05,      /* J = 22 */
(PID.TID 0000.0001)                 2.774243179696503E+05,      /* J = 23 */
(PID.TID 0000.0001)                 2.693210245495156E+05,      /* J = 24 */
(PID.TID 0000.0001)                 2.598919724358304E+05,      /* J = 25 */
(PID.TID 0000.0001)                 2.490022710862746E+05,      /* J = 26 */
(PID.TID 0000.0001)                 2.364352994647058E+05,      /* J = 27 */
(PID.TID 0000.0001)      . . .
(PID.TID 0000.0001)                 2.978501920522794E+05,      /* J = 46 */
(PID.TID 0000.0001)                 3.000967749619962E+05,      /* J = 47 */
(PID.TID 0000.0001)                 3.012190981969055E+05,      /* J = 48 */
(PID.TID 0000.0001)                 3.012190981969055E+05,      /* J = 49 */
(PID.TID 0000.0001)                 3.000967749619962E+05,      /* J = 50 */
(PID.TID 0000.0001)                 2.978501920522794E+05,      /* J = 51 */
(PID.TID 0000.0001)      . . .
(PID.TID 0000.0001)                 2.364352994647058E+05,      /* J = 70 */
(PID.TID 0000.0001)                 2.490022710862746E+05,      /* J = 71 */
(PID.TID 0000.0001)                 2.598919724358304E+05,      /* J = 72 */
(PID.TID 0000.0001)                 2.693210245495156E+05,      /* J = 73 */
(PID.TID 0000.0001)                 2.774243179696503E+05,      /* J = 74 */
(PID.TID 0000.0001)                 2.842862532064524E+05,      /* J = 75 */
(PID.TID 0000.0001)      . . .
(PID.TID 0000.0001)                 1.835530058121492E+05,      /* J = 94 */
(PID.TID 0000.0001)                 1.563594089971120E+05,      /* J = 95 */
(PID.TID 0000.0001)                 1.202082051331828E+05       /* J = 96 */
(PID.TID 0000.0001)     ;
(PID.TID 0000.0001) dxG =  /* dxG(:,1,:,1) ( units: m ) */
(PID.TID 0000.0001)                 1.009837800879055E+05,      /* I =  1 */
(PID.TID 0000.0001)                 1.534505834330338E+05,      /* I =  2 */
(PID.TID 0000.0001)                 1.823321598773926E+05,      /* I =  3 */
(PID.TID 0000.0001)                 2.038999045536999E+05,      /* I =  4 */
(PID.TID 0000.0001)                 2.213884732245467E+05,      /* I =  5 */
(PID.TID 0000.0001)                 2.361211699596122E+05,      /* I =  6 */
(PID.TID 0000.0001)                 2.487693460283865E+05,      /* I =  7 */
(PID.TID 0000.0001)                 2.597126963772147E+05,      /* I =  8 */
(PID.TID 0000.0001)                 2.691790288994575E+05,      /* I =  9 */
(PID.TID 0000.0001)                 2.773091043277394E+05,      /* I = 10 */
(PID.TID 0000.0001)                 2.841906470085516E+05,      /* I = 11 */
(PID.TID 0000.0001)                 2.898778860929753E+05,      /* I = 12 */
(PID.TID 0000.0001)                 2.944035815526416E+05,      /* I = 13 */
(PID.TID 0000.0001)                 2.977867909042096E+05,      /* I = 14 */
(PID.TID 0000.0001)                 3.000380090330854E+05,      /* I = 15 */
(PID.TID 0000.0001)     2 @  3.011625828699101E+05,             /* I = 16: 17 */
(PID.TID 0000.0001)                 3.000380090330854E+05,      /* I = 18 */
(PID.TID 0000.0001)                 2.977867909042096E+05,      /* I = 19 */
(PID.TID 0000.0001)                 2.944035815526416E+05,      /* I = 20 */
(PID.TID 0000.0001)                 2.898778860929753E+05,      /* I = 21 */
(PID.TID 0000.0001)                 2.841906470085516E+05,      /* I = 22 */
(PID.TID 0000.0001)                 2.773091043277394E+05,      /* I = 23 */
(PID.TID 0000.0001)                 2.691790288994575E+05,      /* I = 24 */
(PID.TID 0000.0001)                 2.597126963772147E+05,      /* I = 25 */
(PID.TID 0000.0001)                 2.487693460283865E+05,      /* I = 26 */
(PID.TID 0000.0001)                 2.361211699596122E+05,      /* I = 27 */
(PID.TID 0000.0001)                 2.213884732245467E+05,      /* I = 28 */
(PID.TID 0000.0001)                 2.038999045536999E+05,      /* I = 29 */
(PID.TID 0000.0001)                 1.823321598773926E+05,      /* I = 30 */
(PID.TID 0000.0001)                 1.534505834330338E+05,      /* I = 31 */
(PID.TID 0000.0001)     2 @  1.009837800879055E+05,             /* I = 32: 33 */
(PID.TID 0000.0001)                 1.534505834330338E+05,      /* I = 34 */
(PID.TID 0000.0001)                 1.823321598773926E+05,      /* I = 35 */
(PID.TID 0000.0001)                 2.038999045536999E+05,      /* I = 36 */
(PID.TID 0000.0001)                 2.213884732245467E+05,      /* I = 37 */
(PID.TID 0000.0001)                 2.361211699596122E+05,      /* I = 38 */
(PID.TID 0000.0001)                 2.487693460283865E+05,      /* I = 39 */
(PID.TID 0000.0001)                 2.597126963772147E+05,      /* I = 40 */
(PID.TID 0000.0001)                 2.691790288994575E+05,      /* I = 41 */
(PID.TID 0000.0001)                 2.773091043277394E+05,      /* I = 42 */
(PID.TID 0000.0001)                 2.841906470085516E+05,      /* I = 43 */
(PID.TID 0000.0001)                 2.898778860929753E+05,      /* I = 44 */
(PID.TID 0000.0001)                 2.944035815526416E+05,      /* I = 45 */
(PID.TID 0000.0001)                 2.977867909042096E+05,      /* I = 46 */
(PID.TID 0000.0001)                 3.000380090330854E+05,      /* I = 47 */
(PID.TID 0000.0001)     2 @  3.011625828699101E+05,             /* I = 48: 49 */
(PID.TID 0000.0001)                 3.000380090330854E+05,      /* I = 50 */
(PID.TID 0000.0001)                 2.977867909042096E+05,      /* I = 51 */
(PID.TID 0000.0001)                 2.944035815526416E+05,      /* I = 52 */
(PID.TID 0000.0001)                 2.898778860929753E+05,      /* I = 53 */
(PID.TID 0000.0001)                 2.841906470085516E+05,      /* I = 54 */
(PID.TID 0000.0001)                 2.773091043277394E+05,      /* I = 55 */
(PID.TID 0000.0001)                 2.691790288994575E+05,      /* I = 56 */
(PID.TID 0000.0001)                 2.597126963772147E+05,      /* I = 57 */
(PID.TID 0000.0001)                 2.487693460283865E+05,      /* I = 58 */
(PID.TID 0000.0001)                 2.361211699596122E+05,      /* I = 59 */
(PID.TID 0000.0001)                 2.213884732245467E+05,      /* I = 60 */
(PID.TID 0000.0001)                 2.038999045536999E+05,      /* I = 61 */
(PID.TID 0000.0001)                 1.823321598773926E+05,      /* I = 62 */
(PID.TID 0000.0001)                 1.534505834330338E+05,      /* I = 63 */
(PID.TID 0000.0001)                 1.009837800879055E+05       /* I = 64 */
(PID.TID 0000.0001)     ;
(PID.TID 0000.0001) dxG =  /* dxG(1,:,1,:) ( units: m ) */
(PID.TID 0000.0001)                 1.009837800879055E+05,      /* J =  1 */
(PID.TID 0000.0001)                 1.403701524205398E+05,      /* J =  2 */
(PID.TID 0000.0001)                 1.716197227386011E+05,      /* J =  3 */
(PID.TID 0000.0001)      . . .
(PID.TID 0000.0001)                 2.873420591008078E+05,      /* J = 22 */
(PID.TID 0000.0001)                 2.810845823202647E+05,      /* J = 23 */
(PID.TID 0000.0001)                 2.736173771018112E+05,      /* J = 24 */
(PID.TID 0000.0001)                 2.648750305193301E+05,      /* J = 25 */
(PID.TID 0000.0001)                 2.547526806712889E+05,      /* J = 26 */
(PID.TID 0000.0001)                 2.430829951739083E+05,      /* J = 27 */
(PID.TID 0000.0001)      . . .
(PID.TID 0000.0001)                 2.963715635865306E+05,      /* J = 46 */
(PID.TID 0000.0001)                 2.991805843171258E+05,      /* J = 47 */
(PID.TID 0000.0001)                 3.008638765647886E+05,      /* J = 48 */
(PID.TID 0000.0001)                 3.014246674484008E+05,      /* J = 49 */
(PID.TID 0000.0001)                 3.008638765647886E+05,      /* J = 50 */
(PID.TID 0000.0001)                 2.991805843171258E+05,      /* J = 51 */
(PID.TID 0000.0001)      . . .
(PID.TID 0000.0001)                 2.295958105911512E+05,      /* J = 70 */
(PID.TID 0000.0001)                 2.430829951739083E+05,      /* J = 71 */
(PID.TID 0000.0001)                 2.547526806712889E+05,      /* J = 72 */
(PID.TID 0000.0001)                 2.648750305193301E+05,      /* J = 73 */
(PID.TID 0000.0001)                 2.736173771018112E+05,      /* J = 74 */
(PID.TID 0000.0001)                 2.810845823202647E+05,      /* J = 75 */
(PID.TID 0000.0001)      . . .
(PID.TID 0000.0001)                 1.950254041626018E+05,      /* J = 94 */
(PID.TID 0000.0001)                 1.716197227386011E+05,      /* J = 95 */
(PID.TID 0000.0001)                 1.403701524205398E+05       /* J = 96 */
(PID.TID 0000.0001)     ;
(PID.TID 0000.0001) dyG =  /* dyG(:,1,:,1) ( units: m ) */
(PID.TID 0000.0001)                 1.009837800879055E+05,      /* I =  1 */
(PID.TID 0000.0001)                 1.403701524205398E+05,      /* I =  2 */
(PID.TID 0000.0001)                 1.716197227386011E+05,      /* I =  3 */
(PID.TID 0000.0001)                 1.950254041626018E+05,      /* I =  4 */
(PID.TID 0000.0001)                 2.138410773065497E+05,      /* I =  5 */
(PID.TID 0000.0001)                 2.295958105911512E+05,      /* I =  6 */
(PID.TID 0000.0001)                 2.430829951739083E+05,      /* I =  7 */
(PID.TID 0000.0001)                 2.547526806712889E+05,      /* I =  8 */
(PID.TID 0000.0001)                 2.648750305193301E+05,      /* I =  9 */
(PID.TID 0000.0001)                 2.736173771018112E+05,      /* I = 10 */
(PID.TID 0000.0001)                 2.810845823202647E+05,      /* I = 11 */
(PID.TID 0000.0001)                 2.873420591008078E+05,      /* I = 12 */
(PID.TID 0000.0001)                 2.924298293668651E+05,      /* I = 13 */
(PID.TID 0000.0001)                 2.963715635865306E+05,      /* I = 14 */
(PID.TID 0000.0001)                 2.991805843171258E+05,      /* I = 15 */
(PID.TID 0000.0001)                 3.008638765647886E+05,      /* I = 16 */
(PID.TID 0000.0001)                 3.014246674484008E+05,      /* I = 17 */
(PID.TID 0000.0001)                 3.008638765647886E+05,      /* I = 18 */
(PID.TID 0000.0001)                 2.991805843171258E+05,      /* I = 19 */
(PID.TID 0000.0001)                 2.963715635865306E+05,      /* I = 20 */
(PID.TID 0000.0001)                 2.924298293668651E+05,      /* I = 21 */
(PID.TID 0000.0001)                 2.873420591008078E+05,      /* I = 22 */
(PID.TID 0000.0001)                 2.810845823202647E+05,      /* I = 23 */
(PID.TID 0000.0001)                 2.736173771018112E+05,      /* I = 24 */
(PID.TID 0000.0001)                 2.648750305193301E+05,      /* I = 25 */
(PID.TID 0000.0001)                 2.547526806712889E+05,      /* I = 26 */
(PID.TID 0000.0001)                 2.430829951739083E+05,      /* I = 27 */
(PID.TID 0000.0001)                 2.295958105911512E+05,      /* I = 28 */
(PID.TID 0000.0001)                 2.138410773065497E+05,      /* I = 29 */
(PID.TID 0000.0001)                 1.950254041626018E+05,      /* I = 30 */
(PID.TID 0000.0001)                 1.716197227386011E+05,      /* I = 31 */
(PID.TID 0000.0001)                 1.403701524205398E+05,      /* I = 32 */
(PID.TID 0000.0001)                 1.009837800879055E+05,      /* I = 33 */
(PID.TID 0000.0001)                 1.403701524205398E+05,      /* I = 34 */
(PID.TID 0000.0001)                 1.716197227386011E+05,      /* I = 35 */
(PID.TID 0000.0001)                 1.950254041626018E+05,      /* I = 36 */
(PID.TID 0000.0001)                 2.138410773065497E+05,      /* I = 37 */
(PID.TID 0000.0001)                 2.295958105911512E+05,      /* I = 38 */
(PID.TID 0000.0001)                 2.430829951739083E+05,      /* I = 39 */
(PID.TID 0000.0001)                 2.547526806712889E+05,      /* I = 40 */
(PID.TID 0000.0001)                 2.648750305193301E+05,      /* I = 41 */
(PID.TID 0000.0001)                 2.736173771018112E+05,      /* I = 42 */
(PID.TID 0000.0001)                 2.810845823202647E+05,      /* I = 43 */
(PID.TID 0000.0001)                 2.873420591008078E+05,      /* I = 44 */
(PID.TID 0000.0001)                 2.924298293668651E+05,      /* I = 45 */
(PID.TID 0000.0001)                 2.963715635865306E+05,      /* I = 46 */
(PID.TID 0000.0001)                 2.991805843171258E+05,      /* I = 47 */
(PID.TID 0000.0001)                 3.008638765647886E+05,      /* I = 48 */
(PID.TID 0000.0001)                 3.014246674484008E+05,      /* I = 49 */
(PID.TID 0000.0001)                 3.008638765647886E+05,      /* I = 50 */
(PID.TID 0000.0001)                 2.991805843171258E+05,      /* I = 51 */
(PID.TID 0000.0001)                 2.963715635865306E+05,      /* I = 52 */
(PID.TID 0000.0001)                 2.924298293668651E+05,      /* I = 53 */
(PID.TID 0000.0001)                 2.873420591008078E+05,      /* I = 54 */
(PID.TID 0000.0001)                 2.810845823202647E+05,      /* I = 55 */
(PID.TID 0000.0001)                 2.736173771018112E+05,      /* I = 56 */
(PID.TID 0000.0001)                 2.648750305193301E+05,      /* I = 57 */
(PID.TID 0000.0001)                 2.547526806712889E+05,      /* I = 58 */
(PID.TID 0000.0001)                 2.430829951739083E+05,      /* I = 59 */
(PID.TID 0000.0001)                 2.295958105911512E+05,      /* I = 60 */
(PID.TID 0000.0001)                 2.138410773065497E+05,      /* I = 61 */
(PID.TID 0000.0001)                 1.950254041626018E+05,      /* I = 62 */
(PID.TID 0000.0001)                 1.716197227386011E+05,      /* I = 63 */
(PID.TID 0000.0001)                 1.403701524205398E+05       /* I = 64 */
(PID.TID 0000.0001)     ;
(PID.TID 0000.0001) dyG =  /* dyG(1,:,1,:) ( units: m ) */
(PID.TID 0000.0001)                 1.009837800879055E+05,      /* J =  1 */
(PID.TID 0000.0001)                 1.534505834330338E+05,      /* J =  2 */
(PID.TID 0000.0001)                 1.823321598773926E+05,      /* J =  3 */
(PID.TID 0000.0001)      . . .
(PID.TID 0000.0001)                 2.841906470085516E+05,      /* J = 22 */
(PID.TID 0000.0001)                 2.773091043277394E+05,      /* J = 23 */
(PID.TID 0000.0001)                 2.691790288994575E+05,      /* J = 24 */
(PID.TID 0000.0001)                 2.597126963772147E+05,      /* J = 25 */
(PID.TID 0000.0001)                 2.487693460283865E+05,      /* J = 26 */
(PID.TID 0000.0001)                 2.361211699596122E+05,      /* J = 27 */
(PID.TID 0000.0001)      . . .
(PID.TID 0000.0001)                 2.977867909042096E+05,      /* J = 46 */
(PID.TID 0000.0001)                 3.000380090330854E+05,      /* J = 47 */
(PID.TID 0000.0001)                 3.011625828699101E+05,      /* J = 48 */
(PID.TID 0000.0001)                 3.011625828699101E+05,      /* J = 49 */
(PID.TID 0000.0001)                 3.000380090330854E+05,      /* J = 50 */
(PID.TID 0000.0001)                 2.977867909042096E+05,      /* J = 51 */
(PID.TID 0000.0001)      . . .
(PID.TID 0000.0001)                 2.361211699596122E+05,      /* J = 70 */
(PID.TID 0000.0001)                 2.487693460283865E+05,      /* J = 71 */
(PID.TID 0000.0001)                 2.597126963772147E+05,      /* J = 72 */
(PID.TID 0000.0001)                 2.691790288994575E+05,      /* J = 73 */
(PID.TID 0000.0001)                 2.773091043277394E+05,      /* J = 74 */
(PID.TID 0000.0001)                 2.841906470085516E+05,      /* J = 75 */
(PID.TID 0000.0001)      . . .
(PID.TID 0000.0001)                 1.823321598773926E+05,      /* J = 94 */
(PID.TID 0000.0001)                 1.534505834330338E+05,      /* J = 95 */
(PID.TID 0000.0001)                 1.009837800879055E+05       /* J = 96 */
(PID.TID 0000.0001)     ;
(PID.TID 0000.0001) dxC =  /* dxC(:,1,:,1) ( units: m ) */
(PID.TID 0000.0001)                 1.114203141013064E+05,      /* I =  1 */
(PID.TID 0000.0001)                 1.391343389937106E+05,      /* I =  2 */
(PID.TID 0000.0001)                 1.709574999026266E+05,      /* I =  3 */
(PID.TID 0000.0001)                 1.946503699269892E+05,      /* I =  4 */
(PID.TID 0000.0001)                 2.135964483342134E+05,      /* I =  5 */
(PID.TID 0000.0001)                 2.294195678257306E+05,      /* I =  6 */
(PID.TID 0000.0001)                 2.429464709770498E+05,      /* I =  7 */
(PID.TID 0000.0001)                 2.546408290696998E+05,      /* I =  8 */
(PID.TID 0000.0001)                 2.647791839299727E+05,      /* I =  9 */
(PID.TID 0000.0001)                 2.735321911346108E+05,      /* I = 10 */
(PID.TID 0000.0001)                 2.810065951609633E+05,      /* I = 11 */
(PID.TID 0000.0001)                 2.872689479506990E+05,      /* I = 12 */
(PID.TID 0000.0001)                 2.923599955312932E+05,      /* I = 13 */
(PID.TID 0000.0001)                 2.963038832565530E+05,      /* I = 14 */
(PID.TID 0000.0001)                 2.991142470004740E+05,      /* I = 15 */
(PID.TID 0000.0001)                 3.007982711627968E+05,      /* I = 16 */
(PID.TID 0000.0001)                 3.013593857228136E+05,      /* I = 17 */
(PID.TID 0000.0001)                 3.007982711627968E+05,      /* I = 18 */
(PID.TID 0000.0001)                 2.991142470004740E+05,      /* I = 19 */
(PID.TID 0000.0001)                 2.963038832565530E+05,      /* I = 20 */
(PID.TID 0000.0001)                 2.923599955312932E+05,      /* I = 21 */
(PID.TID 0000.0001)                 2.872689479506990E+05,      /* I = 22 */
(PID.TID 0000.0001)                 2.810065951609633E+05,      /* I = 23 */
(PID.TID 0000.0001)                 2.735321911346108E+05,      /* I = 24 */
(PID.TID 0000.0001)                 2.647791839299727E+05,      /* I = 25 */
(PID.TID 0000.0001)                 2.546408290696998E+05,      /* I = 26 */
(PID.TID 0000.0001)                 2.429464709770498E+05,      /* I = 27 */
(PID.TID 0000.0001)                 2.294195678257306E+05,      /* I = 28 */
(PID.TID 0000.0001)                 2.135964483342134E+05,      /* I = 29 */
(PID.TID 0000.0001)                 1.946503699269892E+05,      /* I = 30 */
(PID.TID 0000.0001)                 1.709574999026266E+05,      /* I = 31 */
(PID.TID 0000.0001)                 1.391343389937106E+05,      /* I = 32 */
(PID.TID 0000.0001)                 1.114203141013064E+05,      /* I = 33 */
(PID.TID 0000.0001)                 1.391343389937106E+05,      /* I = 34 */
(PID.TID 0000.0001)                 1.709574999026266E+05,      /* I = 35 */
(PID.TID 0000.0001)                 1.946503699269892E+05,      /* I = 36 */
(PID.TID 0000.0001)                 2.135964483342134E+05,      /* I = 37 */
(PID.TID 0000.0001)                 2.294195678257306E+05,      /* I = 38 */
(PID.TID 0000.0001)                 2.429464709770498E+05,      /* I = 39 */
(PID.TID 0000.0001)                 2.546408290696998E+05,      /* I = 40 */
(PID.TID 0000.0001)                 2.647791839299727E+05,      /* I = 41 */
(PID.TID 0000.0001)                 2.735321911346108E+05,      /* I = 42 */
(PID.TID 0000.0001)                 2.810065951609633E+05,      /* I = 43 */
(PID.TID 0000.0001)                 2.872689479506990E+05,      /* I = 44 */
(PID.TID 0000.0001)                 2.923599955312932E+05,      /* I = 45 */
(PID.TID 0000.0001)                 2.963038832565530E+05,      /* I = 46 */
(PID.TID 0000.0001)                 2.991142470004740E+05,      /* I = 47 */
(PID.TID 0000.0001)                 3.007982711627968E+05,      /* I = 48 */
(PID.TID 0000.0001)                 3.013593857228136E+05,      /* I = 49 */
(PID.TID 0000.0001)                 3.007982711627968E+05,      /* I = 50 */
(PID.TID 0000.0001)                 2.991142470004740E+05,      /* I = 51 */
(PID.TID 0000.0001)                 2.963038832565530E+05,      /* I = 52 */
(PID.TID 0000.0001)                 2.923599955312932E+05,      /* I = 53 */
(PID.TID 0000.0001)                 2.872689479506990E+05,      /* I = 54 */
(PID.TID 0000.0001)                 2.810065951609633E+05,      /* I = 55 */
(PID.TID 0000.0001)                 2.735321911346108E+05,      /* I = 56 */
(PID.TID 0000.0001)                 2.647791839299727E+05,      /* I = 57 */
(PID.TID 0000.0001)                 2.546408290696998E+05,      /* I = 58 */
(PID.TID 0000.0001)                 2.429464709770498E+05,      /* I = 59 */
(PID.TID 0000.0001)                 2.294195678257306E+05,      /* I = 60 */
(PID.TID 0000.0001)                 2.135964483342134E+05,      /* I = 61 */
(PID.TID 0000.0001)                 1.946503699269892E+05,      /* I = 62 */
(PID.TID 0000.0001)                 1.709574999026266E+05,      /* I = 63 */
(PID.TID 0000.0001)                 1.391343389937106E+05       /* I = 64 */
(PID.TID 0000.0001)     ;
(PID.TID 0000.0001) dxC =  /* dxC(1,:,1,:) ( units: m ) */
(PID.TID 0000.0001)                 1.114203141013064E+05,      /* J =  1 */
(PID.TID 0000.0001)                 1.549545757850771E+05,      /* J =  2 */
(PID.TID 0000.0001)                 1.829777599966776E+05,      /* J =  3 */
(PID.TID 0000.0001)      . . .
(PID.TID 0000.0001)                 2.842706922224557E+05,      /* J = 22 */
(PID.TID 0000.0001)                 2.773972106720365E+05,      /* J = 23 */
(PID.TID 0000.0001)                 2.692787333338535E+05,      /* J = 24 */
(PID.TID 0000.0001)                 2.598293319150326E+05,      /* J = 25 */
(PID.TID 0000.0001)                 2.489113743322025E+05,      /* J = 26 */
(PID.TID 0000.0001)                 2.363029564123586E+05,      /* J = 27 */
(PID.TID 0000.0001)      . . .
(PID.TID 0000.0001)                 2.978547649292580E+05,      /* J = 46 */
(PID.TID 0000.0001)                 3.001044073506459E+05,      /* J = 47 */
(PID.TID 0000.0001)                 3.012281885409289E+05,      /* J = 48 */
(PID.TID 0000.0001)                 3.012281885409289E+05,      /* J = 49 */
(PID.TID 0000.0001)                 3.001044073506459E+05,      /* J = 50 */
(PID.TID 0000.0001)                 2.978547649292580E+05,      /* J = 51 */
(PID.TID 0000.0001)      . . .
(PID.TID 0000.0001)                 2.363029564123586E+05,      /* J = 70 */
(PID.TID 0000.0001)                 2.489113743322025E+05,      /* J = 71 */
(PID.TID 0000.0001)                 2.598293319150326E+05,      /* J = 72 */
(PID.TID 0000.0001)                 2.692787333338535E+05,      /* J = 73 */
(PID.TID 0000.0001)                 2.773972106720365E+05,      /* J = 74 */
(PID.TID 0000.0001)                 2.842706922224557E+05,      /* J = 75 */
(PID.TID 0000.0001)      . . .
(PID.TID 0000.0001)                 1.829777599966776E+05,      /* J = 94 */
(PID.TID 0000.0001)                 1.549545757850771E+05,      /* J = 95 */
(PID.TID 0000.0001)                 1.114203141013064E+05       /* J = 96 */
(PID.TID 0000.0001)     ;
(PID.TID 0000.0001) dyC =  /* dyC(:,1,:,1) ( units: m ) */
(PID.TID 0000.0001)                 1.114203141013064E+05,      /* I =  1 */
(PID.TID 0000.0001)                 1.549545757850771E+05,      /* I =  2 */
(PID.TID 0000.0001)                 1.829777599966776E+05,      /* I =  3 */
(PID.TID 0000.0001)                 2.042717761866506E+05,      /* I =  4 */
(PID.TID 0000.0001)                 2.216367828252819E+05,      /* I =  5 */
(PID.TID 0000.0001)                 2.363029564123586E+05,      /* I =  6 */
(PID.TID 0000.0001)                 2.489113743322025E+05,      /* I =  7 */
(PID.TID 0000.0001)                 2.598293319150326E+05,      /* I =  8 */
(PID.TID 0000.0001)                 2.692787333338535E+05,      /* I =  9 */
(PID.TID 0000.0001)                 2.773972106720365E+05,      /* I = 10 */
(PID.TID 0000.0001)                 2.842706922224557E+05,      /* I = 11 */
(PID.TID 0000.0001)                 2.899523122489403E+05,      /* I = 12 */
(PID.TID 0000.0001)                 2.944741346384699E+05,      /* I = 13 */
(PID.TID 0000.0001)                 2.978547649292580E+05,      /* I = 14 */
(PID.TID 0000.0001)                 3.001044073506459E+05,      /* I = 15 */
(PID.TID 0000.0001)     2 @  3.012281885409289E+05,             /* I = 16: 17 */
(PID.TID 0000.0001)                 3.001044073506459E+05,      /* I = 18 */
(PID.TID 0000.0001)                 2.978547649292580E+05,      /* I = 19 */
(PID.TID 0000.0001)                 2.944741346384699E+05,      /* I = 20 */
(PID.TID 0000.0001)                 2.899523122489403E+05,      /* I = 21 */
(PID.TID 0000.0001)                 2.842706922224557E+05,      /* I = 22 */
(PID.TID 0000.0001)                 2.773972106720365E+05,      /* I = 23 */
(PID.TID 0000.0001)                 2.692787333338535E+05,      /* I = 24 */
(PID.TID 0000.0001)                 2.598293319150326E+05,      /* I = 25 */
(PID.TID 0000.0001)                 2.489113743322025E+05,      /* I = 26 */
(PID.TID 0000.0001)                 2.363029564123586E+05,      /* I = 27 */
(PID.TID 0000.0001)                 2.216367828252819E+05,      /* I = 28 */
(PID.TID 0000.0001)                 2.042717761866506E+05,      /* I = 29 */
(PID.TID 0000.0001)                 1.829777599966776E+05,      /* I = 30 */
(PID.TID 0000.0001)                 1.549545757850771E+05,      /* I = 31 */
(PID.TID 0000.0001)     2 @  1.114203141013064E+05,             /* I = 32: 33 */
(PID.TID 0000.0001)                 1.549545757850771E+05,      /* I = 34 */
(PID.TID 0000.0001)                 1.829777599966776E+05,      /* I = 35 */
(PID.TID 0000.0001)                 2.042717761866506E+05,      /* I = 36 */
(PID.TID 0000.0001)                 2.216367828252819E+05,      /* I = 37 */
(PID.TID 0000.0001)                 2.363029564123586E+05,      /* I = 38 */
(PID.TID 0000.0001)                 2.489113743322025E+05,      /* I = 39 */
(PID.TID 0000.0001)                 2.598293319150326E+05,      /* I = 40 */
(PID.TID 0000.0001)                 2.692787333338535E+05,      /* I = 41 */
(PID.TID 0000.0001)                 2.773972106720365E+05,      /* I = 42 */
(PID.TID 0000.0001)                 2.842706922224557E+05,      /* I = 43 */
(PID.TID 0000.0001)                 2.899523122489403E+05,      /* I = 44 */
(PID.TID 0000.0001)                 2.944741346384699E+05,      /* I = 45 */
(PID.TID 0000.0001)                 2.978547649292580E+05,      /* I = 46 */
(PID.TID 0000.0001)                 3.001044073506459E+05,      /* I = 47 */
(PID.TID 0000.0001)     2 @  3.012281885409289E+05,             /* I = 48: 49 */
(PID.TID 0000.0001)                 3.001044073506459E+05,      /* I = 50 */
(PID.TID 0000.0001)                 2.978547649292580E+05,      /* I = 51 */
(PID.TID 0000.0001)                 2.944741346384699E+05,      /* I = 52 */
(PID.TID 0000.0001)                 2.899523122489403E+05,      /* I = 53 */
(PID.TID 0000.0001)                 2.842706922224557E+05,      /* I = 54 */
(PID.TID 0000.0001)                 2.773972106720365E+05,      /* I = 55 */
(PID.TID 0000.0001)                 2.692787333338535E+05,      /* I = 56 */
(PID.TID 0000.0001)                 2.598293319150326E+05,      /* I = 57 */
(PID.TID 0000.0001)                 2.489113743322025E+05,      /* I = 58 */
(PID.TID 0000.0001)                 2.363029564123586E+05,      /* I = 59 */
(PID.TID 0000.0001)                 2.216367828252819E+05,      /* I = 60 */
(PID.TID 0000.0001)                 2.042717761866506E+05,      /* I = 61 */
(PID.TID 0000.0001)                 1.829777599966776E+05,      /* I = 62 */
(PID.TID 0000.0001)                 1.549545757850771E+05,      /* I = 63 */
(PID.TID 0000.0001)                 1.114203141013064E+05       /* I = 64 */
(PID.TID 0000.0001)     ;
(PID.TID 0000.0001) dyC =  /* dyC(1,:,1,:) ( units: m ) */
(PID.TID 0000.0001)                 1.114203141013064E+05,      /* J =  1 */
(PID.TID 0000.0001)                 1.391343389937106E+05,      /* J =  2 */
(PID.TID 0000.0001)                 1.709574999026266E+05,      /* J =  3 */
(PID.TID 0000.0001)      . . .
(PID.TID 0000.0001)                 2.872689479506990E+05,      /* J = 22 */
(PID.TID 0000.0001)                 2.810065951609633E+05,      /* J = 23 */
(PID.TID 0000.0001)                 2.735321911346108E+05,      /* J = 24 */
(PID.TID 0000.0001)                 2.647791839299727E+05,      /* J = 25 */
(PID.TID 0000.0001)                 2.546408290696998E+05,      /* J = 26 */
(PID.TID 0000.0001)                 2.429464709770498E+05,      /* J = 27 */
(PID.TID 0000.0001)      . . .
(PID.TID 0000.0001)                 2.963038832565530E+05,      /* J = 46 */
(PID.TID 0000.0001)                 2.991142470004740E+05,      /* J = 47 */
(PID.TID 0000.0001)                 3.007982711627968E+05,      /* J = 48 */
(PID.TID 0000.0001)                 3.013593857228136E+05,      /* J = 49 */
(PID.TID 0000.0001)                 3.007982711627968E+05,      /* J = 50 */
(PID.TID 0000.0001)                 2.991142470004740E+05,      /* J = 51 */
(PID.TID 0000.0001)      . . .
(PID.TID 0000.0001)                 2.294195678257306E+05,      /* J = 70 */
(PID.TID 0000.0001)                 2.429464709770498E+05,      /* J = 71 */
(PID.TID 0000.0001)                 2.546408290696998E+05,      /* J = 72 */
(PID.TID 0000.0001)                 2.647791839299727E+05,      /* J = 73 */
(PID.TID 0000.0001)                 2.735321911346108E+05,      /* J = 74 */
(PID.TID 0000.0001)                 2.810065951609633E+05,      /* J = 75 */
(PID.TID 0000.0001)      . . .
(PID.TID 0000.0001)                 1.946503699269892E+05,      /* J = 94 */
(PID.TID 0000.0001)                 1.709574999026266E+05,      /* J = 95 */
(PID.TID 0000.0001)                 1.391343389937106E+05       /* J = 96 */
(PID.TID 0000.0001)     ;
(PID.TID 0000.0001) dxV =  /* dxV(:,1,:,1) ( units: m ) */
(PID.TID 0000.0001)                 8.015229982413632E+04,      /* I =  1 */
(PID.TID 0000.0001)                 1.333130744933864E+05,      /* I =  2 */
(PID.TID 0000.0001)                 1.691744868129062E+05,      /* I =  3 */
(PID.TID 0000.0001)                 1.937548202849060E+05,      /* I =  4 */
(PID.TID 0000.0001)                 2.130490056267208E+05,      /* I =  5 */
(PID.TID 0000.0001)                 2.290479919481738E+05,      /* I =  6 */
(PID.TID 0000.0001)                 2.426774358027003E+05,      /* I =  7 */
(PID.TID 0000.0001)                 2.544372984215561E+05,      /* I =  8 */
(PID.TID 0000.0001)                 2.646201463834826E+05,      /* I =  9 */
(PID.TID 0000.0001)                 2.734046499619031E+05,      /* I = 10 */
(PID.TID 0000.0001)                 2.809019351693761E+05,      /* I = 11 */
(PID.TID 0000.0001)                 2.871811105274442E+05,      /* I = 12 */
(PID.TID 0000.0001)                 2.922844849381675E+05,      /* I = 13 */
(PID.TID 0000.0001)                 2.962371870847826E+05,      /* I = 14 */
(PID.TID 0000.0001)                 2.990534755671296E+05,      /* I = 15 */
(PID.TID 0000.0001)                 3.007409169495504E+05,      /* I = 16 */
(PID.TID 0000.0001)                 3.013031486919771E+05,      /* I = 17 */
(PID.TID 0000.0001)                 3.007409169495504E+05,      /* I = 18 */
(PID.TID 0000.0001)                 2.990534755671296E+05,      /* I = 19 */
(PID.TID 0000.0001)                 2.962371870847826E+05,      /* I = 20 */
(PID.TID 0000.0001)                 2.922844849381675E+05,      /* I = 21 */
(PID.TID 0000.0001)                 2.871811105274442E+05,      /* I = 22 */
(PID.TID 0000.0001)                 2.809019351693761E+05,      /* I = 23 */
(PID.TID 0000.0001)                 2.734046499619031E+05,      /* I = 24 */
(PID.TID 0000.0001)                 2.646201463834826E+05,      /* I = 25 */
(PID.TID 0000.0001)                 2.544372984215561E+05,      /* I = 26 */
(PID.TID 0000.0001)                 2.426774358027003E+05,      /* I = 27 */
(PID.TID 0000.0001)                 2.290479919481738E+05,      /* I = 28 */
(PID.TID 0000.0001)                 2.130490056267208E+05,      /* I = 29 */
(PID.TID 0000.0001)                 1.937548202849060E+05,      /* I = 30 */
(PID.TID 0000.0001)                 1.691744868129062E+05,      /* I = 31 */
(PID.TID 0000.0001)                 1.333130744933864E+05,      /* I = 32 */
(PID.TID 0000.0001)                 8.015229982413632E+04,      /* I = 33 */
(PID.TID 0000.0001)                 1.333130744933864E+05,      /* I = 34 */
(PID.TID 0000.0001)                 1.691744868129062E+05,      /* I = 35 */
(PID.TID 0000.0001)                 1.937548202849060E+05,      /* I = 36 */
(PID.TID 0000.0001)                 2.130490056267208E+05,      /* I = 37 */
(PID.TID 0000.0001)                 2.290479919481738E+05,      /* I = 38 */
(PID.TID 0000.0001)                 2.426774358027003E+05,      /* I = 39 */
(PID.TID 0000.0001)                 2.544372984215561E+05,      /* I = 40 */
(PID.TID 0000.0001)                 2.646201463834826E+05,      /* I = 41 */
(PID.TID 0000.0001)                 2.734046499619031E+05,      /* I = 42 */
(PID.TID 0000.0001)                 2.809019351693761E+05,      /* I = 43 */
(PID.TID 0000.0001)                 2.871811105274442E+05,      /* I = 44 */
(PID.TID 0000.0001)                 2.922844849381675E+05,      /* I = 45 */
(PID.TID 0000.0001)                 2.962371870847826E+05,      /* I = 46 */
(PID.TID 0000.0001)                 2.990534755671296E+05,      /* I = 47 */
(PID.TID 0000.0001)                 3.007409169495504E+05,      /* I = 48 */
(PID.TID 0000.0001)                 3.013031486919771E+05,      /* I = 49 */
(PID.TID 0000.0001)                 3.007409169495504E+05,      /* I = 50 */
(PID.TID 0000.0001)                 2.990534755671296E+05,      /* I = 51 */
(PID.TID 0000.0001)                 2.962371870847826E+05,      /* I = 52 */
(PID.TID 0000.0001)                 2.922844849381675E+05,      /* I = 53 */
(PID.TID 0000.0001)                 2.871811105274442E+05,      /* I = 54 */
(PID.TID 0000.0001)                 2.809019351693761E+05,      /* I = 55 */
(PID.TID 0000.0001)                 2.734046499619031E+05,      /* I = 56 */
(PID.TID 0000.0001)                 2.646201463834826E+05,      /* I = 57 */
(PID.TID 0000.0001)                 2.544372984215561E+05,      /* I = 58 */
(PID.TID 0000.0001)                 2.426774358027003E+05,      /* I = 59 */
(PID.TID 0000.0001)                 2.290479919481738E+05,      /* I = 60 */
(PID.TID 0000.0001)                 2.130490056267208E+05,      /* I = 61 */
(PID.TID 0000.0001)                 1.937548202849060E+05,      /* I = 62 */
(PID.TID 0000.0001)                 1.691744868129062E+05,      /* I = 63 */
(PID.TID 0000.0001)                 1.333130744933864E+05       /* I = 64 */
(PID.TID 0000.0001)     ;
(PID.TID 0000.0001) dxV =  /* dxV(1,:,1,:) ( units: m ) */
(PID.TID 0000.0001)                 8.015229982413632E+04,      /* J =  1 */
(PID.TID 0000.0001)                 1.362652340208229E+05,      /* J =  2 */
(PID.TID 0000.0001)                 1.701080315742101E+05,      /* J =  3 */
(PID.TID 0000.0001)      . . .
(PID.TID 0000.0001)                 2.872580915202295E+05,      /* J = 22 */
(PID.TID 0000.0001)                 2.809856491525217E+05,      /* J = 23 */
(PID.TID 0000.0001)                 2.734980225206389E+05,      /* J = 24 */
(PID.TID 0000.0001)                 2.647274964828301E+05,      /* J = 25 */
(PID.TID 0000.0001)                 2.545652950875683E+05,      /* J = 26 */
(PID.TID 0000.0001)                 2.428369969078989E+05,      /* J = 27 */
(PID.TID 0000.0001)      . . .
(PID.TID 0000.0001)                 2.963063101754721E+05,      /* J = 46 */
(PID.TID 0000.0001)                 2.991205495886625E+05,      /* J = 47 */
(PID.TID 0000.0001)                 3.008068453676764E+05,      /* J = 48 */
(PID.TID 0000.0001)                 3.013686170436881E+05,      /* J = 49 */
(PID.TID 0000.0001)                 3.008068453676764E+05,      /* J = 50 */
(PID.TID 0000.0001)                 2.991205495886625E+05,      /* J = 51 */
(PID.TID 0000.0001)      . . .
(PID.TID 0000.0001)                 2.292584591272880E+05,      /* J = 70 */
(PID.TID 0000.0001)                 2.428369969078989E+05,      /* J = 71 */
(PID.TID 0000.0001)                 2.545652950875683E+05,      /* J = 72 */
(PID.TID 0000.0001)                 2.647274964828301E+05,      /* J = 73 */
(PID.TID 0000.0001)                 2.734980225206389E+05,      /* J = 74 */
(PID.TID 0000.0001)                 2.809856491525217E+05,      /* J = 75 */
(PID.TID 0000.0001)      . . .
(PID.TID 0000.0001)                 1.942331448101592E+05,      /* J = 94 */
(PID.TID 0000.0001)                 1.701080315742101E+05,      /* J = 95 */
(PID.TID 0000.0001)                 1.362652340208229E+05       /* J = 96 */
(PID.TID 0000.0001)     ;
(PID.TID 0000.0001) dyU =  /* dyU(:,1,:,1) ( units: m ) */
(PID.TID 0000.0001)                 8.015229982413632E+04,      /* I =  1 */
(PID.TID 0000.0001)                 1.362652340208229E+05,      /* I =  2 */
(PID.TID 0000.0001)                 1.701080315742101E+05,      /* I =  3 */
(PID.TID 0000.0001)                 1.942331448101592E+05,      /* I =  4 */
(PID.TID 0000.0001)                 2.133486626971531E+05,      /* I =  5 */
(PID.TID 0000.0001)                 2.292584591272880E+05,      /* I =  6 */
(PID.TID 0000.0001)                 2.428369969078989E+05,      /* I =  7 */
(PID.TID 0000.0001)                 2.545652950875683E+05,      /* I =  8 */
(PID.TID 0000.0001)                 2.647274964828301E+05,      /* I =  9 */
(PID.TID 0000.0001)                 2.734980225206389E+05,      /* I = 10 */
(PID.TID 0000.0001)                 2.809856491525217E+05,      /* I = 11 */
(PID.TID 0000.0001)                 2.872580915202295E+05,      /* I = 12 */
(PID.TID 0000.0001)                 2.923567890694162E+05,      /* I = 13 */
(PID.TID 0000.0001)                 2.963063101754721E+05,      /* I = 14 */
(PID.TID 0000.0001)                 2.991205495886625E+05,      /* I = 15 */
(PID.TID 0000.0001)                 3.008068453676764E+05,      /* I = 16 */
(PID.TID 0000.0001)                 3.013686170436881E+05,      /* I = 17 */
(PID.TID 0000.0001)                 3.008068453676764E+05,      /* I = 18 */
(PID.TID 0000.0001)                 2.991205495886625E+05,      /* I = 19 */
(PID.TID 0000.0001)                 2.963063101754721E+05,      /* I = 20 */
(PID.TID 0000.0001)                 2.923567890694162E+05,      /* I = 21 */
(PID.TID 0000.0001)                 2.872580915202295E+05,      /* I = 22 */
(PID.TID 0000.0001)                 2.809856491525217E+05,      /* I = 23 */
(PID.TID 0000.0001)                 2.734980225206389E+05,      /* I = 24 */
(PID.TID 0000.0001)                 2.647274964828301E+05,      /* I = 25 */
(PID.TID 0000.0001)                 2.545652950875683E+05,      /* I = 26 */
(PID.TID 0000.0001)                 2.428369969078989E+05,      /* I = 27 */
(PID.TID 0000.0001)                 2.292584591272880E+05,      /* I = 28 */
(PID.TID 0000.0001)                 2.133486626971531E+05,      /* I = 29 */
(PID.TID 0000.0001)                 1.942331448101592E+05,      /* I = 30 */
(PID.TID 0000.0001)                 1.701080315742101E+05,      /* I = 31 */
(PID.TID 0000.0001)                 1.362652340208229E+05,      /* I = 32 */
(PID.TID 0000.0001)                 8.015229982413632E+04,      /* I = 33 */
(PID.TID 0000.0001)                 1.362652340208229E+05,      /* I = 34 */
(PID.TID 0000.0001)                 1.701080315742101E+05,      /* I = 35 */
(PID.TID 0000.0001)                 1.942331448101592E+05,      /* I = 36 */
(PID.TID 0000.0001)                 2.133486626971531E+05,      /* I = 37 */
(PID.TID 0000.0001)                 2.292584591272880E+05,      /* I = 38 */
(PID.TID 0000.0001)                 2.428369969078989E+05,      /* I = 39 */
(PID.TID 0000.0001)                 2.545652950875683E+05,      /* I = 40 */
(PID.TID 0000.0001)                 2.647274964828301E+05,      /* I = 41 */
(PID.TID 0000.0001)                 2.734980225206389E+05,      /* I = 42 */
(PID.TID 0000.0001)                 2.809856491525217E+05,      /* I = 43 */
(PID.TID 0000.0001)                 2.872580915202295E+05,      /* I = 44 */
(PID.TID 0000.0001)                 2.923567890694162E+05,      /* I = 45 */
(PID.TID 0000.0001)                 2.963063101754721E+05,      /* I = 46 */
(PID.TID 0000.0001)                 2.991205495886625E+05,      /* I = 47 */
(PID.TID 0000.0001)                 3.008068453676764E+05,      /* I = 48 */
(PID.TID 0000.0001)                 3.013686170436881E+05,      /* I = 49 */
(PID.TID 0000.0001)                 3.008068453676764E+05,      /* I = 50 */
(PID.TID 0000.0001)                 2.991205495886625E+05,      /* I = 51 */
(PID.TID 0000.0001)                 2.963063101754721E+05,      /* I = 52 */
(PID.TID 0000.0001)                 2.923567890694162E+05,      /* I = 53 */
(PID.TID 0000.0001)                 2.872580915202295E+05,      /* I = 54 */
(PID.TID 0000.0001)                 2.809856491525217E+05,      /* I = 55 */
(PID.TID 0000.0001)                 2.734980225206389E+05,      /* I = 56 */
(PID.TID 0000.0001)                 2.647274964828301E+05,      /* I = 57 */
(PID.TID 0000.0001)                 2.545652950875683E+05,      /* I = 58 */
(PID.TID 0000.0001)                 2.428369969078989E+05,      /* I = 59 */
(PID.TID 0000.0001)                 2.292584591272880E+05,      /* I = 60 */
(PID.TID 0000.0001)                 2.133486626971531E+05,      /* I = 61 */
(PID.TID 0000.0001)                 1.942331448101592E+05,      /* I = 62 */
(PID.TID 0000.0001)                 1.701080315742101E+05,      /* I = 63 */
(PID.TID 0000.0001)                 1.362652340208229E+05       /* I = 64 */
(PID.TID 0000.0001)     ;
(PID.TID 0000.0001) dyU =  /* dyU(1,:,1,:) ( units: m ) */
(PID.TID 0000.0001)                 8.015229982413632E+04,      /* J =  1 */
(PID.TID 0000.0001)                 1.333130744933864E+05,      /* J =  2 */
(PID.TID 0000.0001)                 1.691744868129062E+05,      /* J =  3 */
(PID.TID 0000.0001)      . . .
(PID.TID 0000.0001)                 2.871811105274442E+05,      /* J = 22 */
(PID.TID 0000.0001)                 2.809019351693761E+05,      /* J = 23 */
(PID.TID 0000.0001)                 2.734046499619031E+05,      /* J = 24 */
(PID.TID 0000.0001)                 2.646201463834826E+05,      /* J = 25 */
(PID.TID 0000.0001)                 2.544372984215561E+05,      /* J = 26 */
(PID.TID 0000.0001)                 2.426774358027003E+05,      /* J = 27 */
(PID.TID 0000.0001)      . . .
(PID.TID 0000.0001)                 2.962371870847826E+05,      /* J = 46 */
(PID.TID 0000.0001)                 2.990534755671296E+05,      /* J = 47 */
(PID.TID 0000.0001)                 3.007409169495504E+05,      /* J = 48 */
(PID.TID 0000.0001)                 3.013031486919771E+05,      /* J = 49 */
(PID.TID 0000.0001)                 3.007409169495504E+05,      /* J = 50 */
(PID.TID 0000.0001)                 2.990534755671296E+05,      /* J = 51 */
(PID.TID 0000.0001)      . . .
(PID.TID 0000.0001)                 2.290479919481738E+05,      /* J = 70 */
(PID.TID 0000.0001)                 2.426774358027003E+05,      /* J = 71 */
(PID.TID 0000.0001)                 2.544372984215561E+05,      /* J = 72 */
(PID.TID 0000.0001)                 2.646201463834826E+05,      /* J = 73 */
(PID.TID 0000.0001)                 2.734046499619031E+05,      /* J = 74 */
(PID.TID 0000.0001)                 2.809019351693761E+05,      /* J = 75 */
(PID.TID 0000.0001)      . . .
(PID.TID 0000.0001)                 1.937548202849060E+05,      /* J = 94 */
(PID.TID 0000.0001)                 1.691744868129062E+05,      /* J = 95 */
(PID.TID 0000.0001)                 1.333130744933864E+05       /* J = 96 */
(PID.TID 0000.0001)     ;
(PID.TID 0000.0001) rA  =  /* rA (:,1,:,1) ( units: m^2 ) */
(PID.TID 0000.0001)                 1.401900702255611E+10,      /* I =  1 */
(PID.TID 0000.0001)                 2.459906945574446E+10,      /* I =  2 */
(PID.TID 0000.0001)                 3.378518544307869E+10,      /* I =  3 */
(PID.TID 0000.0001)                 4.192037169898667E+10,      /* I =  4 */
(PID.TID 0000.0001)                 4.925938996118163E+10,      /* I =  5 */
(PID.TID 0000.0001)                 5.594154126607553E+10,      /* I =  6 */
(PID.TID 0000.0001)                 6.203683527772523E+10,      /* I =  7 */
(PID.TID 0000.0001)                 6.757541173817516E+10,      /* I =  8 */
(PID.TID 0000.0001)                 7.256353271748119E+10,      /* I =  9 */
(PID.TID 0000.0001)                 7.699293007098555E+10,      /* I = 10 */
(PID.TID 0000.0001)                 8.084683449728902E+10,      /* I = 11 */
(PID.TID 0000.0001)                 8.410423102796223E+10,      /* I = 12 */
(PID.TID 0000.0001)                 8.674306976737517E+10,      /* I = 13 */
(PID.TID 0000.0001)                 8.874277443041928E+10,      /* I = 14 */
(PID.TID 0000.0001)                 9.008620045350865E+10,      /* I = 15 */
(PID.TID 0000.0001)                 9.076111290418457E+10,      /* I = 16 */
(PID.TID 0000.0001)                 9.076111290422060E+10,      /* I = 17 */
(PID.TID 0000.0001)                 9.008620045354469E+10,      /* I = 18 */
(PID.TID 0000.0001)                 8.874277443041928E+10,      /* I = 19 */
(PID.TID 0000.0001)                 8.674306976741121E+10,      /* I = 20 */
(PID.TID 0000.0001)                 8.410423102799828E+10,      /* I = 21 */
(PID.TID 0000.0001)                 8.084683449728902E+10,      /* I = 22 */
(PID.TID 0000.0001)                 7.699293007098555E+10,      /* I = 23 */
(PID.TID 0000.0001)                 7.256353271748119E+10,      /* I = 24 */
(PID.TID 0000.0001)                 6.757541173817516E+10,      /* I = 25 */
(PID.TID 0000.0001)                 6.203683527772523E+10,      /* I = 26 */
(PID.TID 0000.0001)                 5.594154126611156E+10,      /* I = 27 */
(PID.TID 0000.0001)                 4.925938996118163E+10,      /* I = 28 */
(PID.TID 0000.0001)                 4.192037169898667E+10,      /* I = 29 */
(PID.TID 0000.0001)                 3.378518544304265E+10,      /* I = 30 */
(PID.TID 0000.0001)                 2.459906945574446E+10,      /* I = 31 */
(PID.TID 0000.0001)                 1.401900702259215E+10,      /* I = 32 */
(PID.TID 0000.0001)                 1.401900702255611E+10,      /* I = 33 */
(PID.TID 0000.0001)                 2.459906945574446E+10,      /* I = 34 */
(PID.TID 0000.0001)                 3.378518544307869E+10,      /* I = 35 */
(PID.TID 0000.0001)                 4.192037169898667E+10,      /* I = 36 */
(PID.TID 0000.0001)                 4.925938996118163E+10,      /* I = 37 */
(PID.TID 0000.0001)                 5.594154126607553E+10,      /* I = 38 */
(PID.TID 0000.0001)                 6.203683527772523E+10,      /* I = 39 */
(PID.TID 0000.0001)                 6.757541173817516E+10,      /* I = 40 */
(PID.TID 0000.0001)                 7.256353271748119E+10,      /* I = 41 */
(PID.TID 0000.0001)                 7.699293007098555E+10,      /* I = 42 */
(PID.TID 0000.0001)                 8.084683449728902E+10,      /* I = 43 */
(PID.TID 0000.0001)                 8.410423102796223E+10,      /* I = 44 */
(PID.TID 0000.0001)                 8.674306976737517E+10,      /* I = 45 */
(PID.TID 0000.0001)                 8.874277443041928E+10,      /* I = 46 */
(PID.TID 0000.0001)                 9.008620045350865E+10,      /* I = 47 */
(PID.TID 0000.0001)                 9.076111290418457E+10,      /* I = 48 */
(PID.TID 0000.0001)                 9.076111290422060E+10,      /* I = 49 */
(PID.TID 0000.0001)                 9.008620045354469E+10,      /* I = 50 */
(PID.TID 0000.0001)                 8.874277443041928E+10,      /* I = 51 */
(PID.TID 0000.0001)                 8.674306976741121E+10,      /* I = 52 */
(PID.TID 0000.0001)                 8.410423102799828E+10,      /* I = 53 */
(PID.TID 0000.0001)                 8.084683449728902E+10,      /* I = 54 */
(PID.TID 0000.0001)                 7.699293007098555E+10,      /* I = 55 */
(PID.TID 0000.0001)                 7.256353271748119E+10,      /* I = 56 */
(PID.TID 0000.0001)                 6.757541173817516E+10,      /* I = 57 */
(PID.TID 0000.0001)                 6.203683527772523E+10,      /* I = 58 */
(PID.TID 0000.0001)                 5.594154126611156E+10,      /* I = 59 */
(PID.TID 0000.0001)                 4.925938996118163E+10,      /* I = 60 */
(PID.TID 0000.0001)                 4.192037169898667E+10,      /* I = 61 */
(PID.TID 0000.0001)                 3.378518544304265E+10,      /* I = 62 */
(PID.TID 0000.0001)                 2.459906945574446E+10,      /* I = 63 */
(PID.TID 0000.0001)                 1.401900702259215E+10       /* I = 64 */
(PID.TID 0000.0001)     ;
(PID.TID 0000.0001) rA  =  /* rA (1,:,1,:) ( units: m^2 ) */
(PID.TID 0000.0001)                 1.401900702255611E+10,      /* J =  1 */
(PID.TID 0000.0001)                 2.459906945574446E+10,      /* J =  2 */
(PID.TID 0000.0001)                 3.378518544307869E+10,      /* J =  3 */
(PID.TID 0000.0001)      . . .
(PID.TID 0000.0001)                 8.084683449728902E+10,      /* J = 22 */
(PID.TID 0000.0001)                 7.699293007098555E+10,      /* J = 23 */
(PID.TID 0000.0001)                 7.256353271748119E+10,      /* J = 24 */
(PID.TID 0000.0001)                 6.757541173817516E+10,      /* J = 25 */
(PID.TID 0000.0001)                 6.203683527772523E+10,      /* J = 26 */
(PID.TID 0000.0001)                 5.594154126607553E+10,      /* J = 27 */
(PID.TID 0000.0001)      . . .
(PID.TID 0000.0001)                 8.874277443041928E+10,      /* J = 46 */
(PID.TID 0000.0001)                 9.008620045350865E+10,      /* J = 47 */
(PID.TID 0000.0001)                 9.076111290418457E+10,      /* J = 48 */
(PID.TID 0000.0001)                 9.076111290422060E+10,      /* J = 49 */
(PID.TID 0000.0001)                 9.008620045354469E+10,      /* J = 50 */
(PID.TID 0000.0001)                 8.874277443041928E+10,      /* J = 51 */
(PID.TID 0000.0001)      . . .
(PID.TID 0000.0001)                 5.594154126607553E+10,      /* J = 70 */
(PID.TID 0000.0001)                 6.203683527776127E+10,      /* J = 71 */
(PID.TID 0000.0001)                 6.757541173817516E+10,      /* J = 72 */
(PID.TID 0000.0001)                 7.256353271748119E+10,      /* J = 73 */
(PID.TID 0000.0001)                 7.699293007098555E+10,      /* J = 74 */
(PID.TID 0000.0001)                 8.084683449728902E+10,      /* J = 75 */
(PID.TID 0000.0001)      . . .
(PID.TID 0000.0001)                 3.378518544307869E+10,      /* J = 94 */
(PID.TID 0000.0001)                 2.459906945574446E+10,      /* J = 95 */
(PID.TID 0000.0001)                 1.401900702259215E+10       /* J = 96 */
(PID.TID 0000.0001)     ;
(PID.TID 0000.0001) rAw =  /* rAw(:,1,:,1) ( units: m^2 ) */
(PID.TID 0000.0001)                 1.216690346714270E+10,      /* I =  1 */
(PID.TID 0000.0001)                 1.974052138506315E+10,      /* I =  2 */
(PID.TID 0000.0001)                 2.943712825252015E+10,      /* I =  3 */
(PID.TID 0000.0001)                 3.801790263324359E+10,      /* I =  4 */
(PID.TID 0000.0001)                 4.571243814189866E+10,      /* I =  5 */
(PID.TID 0000.0001)                 5.269930713599979E+10,      /* I =  6 */
(PID.TID 0000.0001)                 5.907428494299063E+10,      /* I =  7 */
(PID.TID 0000.0001)                 6.488320895111514E+10,      /* I =  8 */
(PID.TID 0000.0001)                 7.014205907741882E+10,      /* I =  9 */
(PID.TID 0000.0001)                 7.484854821847499E+10,      /* I = 10 */
(PID.TID 0000.0001)                 7.898934631431560E+10,      /* I = 11 */
(PID.TID 0000.0001)                 8.254500894894537E+10,      /* I = 12 */
(PID.TID 0000.0001)                 8.549360686473492E+10,      /* I = 13 */
(PID.TID 0000.0001)                 8.781353403175085E+10,      /* I = 14 */
(PID.TID 0000.0001)                 8.948571540392021E+10,      /* I = 15 */
(PID.TID 0000.0001)                 9.049530583086168E+10,      /* I = 16 */
(PID.TID 0000.0001)                 9.083293515008307E+10,      /* I = 17 */
(PID.TID 0000.0001)                 9.049530583087070E+10,      /* I = 18 */
(PID.TID 0000.0001)                 8.948571540391121E+10,      /* I = 19 */
(PID.TID 0000.0001)                 8.781353403174185E+10,      /* I = 20 */
(PID.TID 0000.0001)                 8.549360686467184E+10,      /* I = 21 */
(PID.TID 0000.0001)                 8.254500894890933E+10,      /* I = 22 */
(PID.TID 0000.0001)                 7.898934631434262E+10,      /* I = 23 */
(PID.TID 0000.0001)                 7.484854821844795E+10,      /* I = 24 */
(PID.TID 0000.0001)                 7.014205907742783E+10,      /* I = 25 */
(PID.TID 0000.0001)                 6.488320895111514E+10,      /* I = 26 */
(PID.TID 0000.0001)                 5.907428494299063E+10,      /* I = 27 */
(PID.TID 0000.0001)                 5.269930713599078E+10,      /* I = 28 */
(PID.TID 0000.0001)                 4.571243814190767E+10,      /* I = 29 */
(PID.TID 0000.0001)                 3.801790263325260E+10,      /* I = 30 */
(PID.TID 0000.0001)                 2.943712825251114E+10,      /* I = 31 */
(PID.TID 0000.0001)                 1.974052138509018E+10,      /* I = 32 */
(PID.TID 0000.0001)                 1.216690346714270E+10,      /* I = 33 */
(PID.TID 0000.0001)                 1.974052138506315E+10,      /* I = 34 */
(PID.TID 0000.0001)                 2.943712825252015E+10,      /* I = 35 */
(PID.TID 0000.0001)                 3.801790263324359E+10,      /* I = 36 */
(PID.TID 0000.0001)                 4.571243814189866E+10,      /* I = 37 */
(PID.TID 0000.0001)                 5.269930713599979E+10,      /* I = 38 */
(PID.TID 0000.0001)                 5.907428494299063E+10,      /* I = 39 */
(PID.TID 0000.0001)                 6.488320895111514E+10,      /* I = 40 */
(PID.TID 0000.0001)                 7.014205907741882E+10,      /* I = 41 */
(PID.TID 0000.0001)                 7.484854821847499E+10,      /* I = 42 */
(PID.TID 0000.0001)                 7.898934631431560E+10,      /* I = 43 */
(PID.TID 0000.0001)                 8.254500894894537E+10,      /* I = 44 */
(PID.TID 0000.0001)                 8.549360686473492E+10,      /* I = 45 */
(PID.TID 0000.0001)                 8.781353403175085E+10,      /* I = 46 */
(PID.TID 0000.0001)                 8.948571540392021E+10,      /* I = 47 */
(PID.TID 0000.0001)                 9.049530583086168E+10,      /* I = 48 */
(PID.TID 0000.0001)                 9.083293515008307E+10,      /* I = 49 */
(PID.TID 0000.0001)                 9.049530583087070E+10,      /* I = 50 */
(PID.TID 0000.0001)                 8.948571540391121E+10,      /* I = 51 */
(PID.TID 0000.0001)                 8.781353403174185E+10,      /* I = 52 */
(PID.TID 0000.0001)                 8.549360686467184E+10,      /* I = 53 */
(PID.TID 0000.0001)                 8.254500894890933E+10,      /* I = 54 */
(PID.TID 0000.0001)                 7.898934631434262E+10,      /* I = 55 */
(PID.TID 0000.0001)                 7.484854821844795E+10,      /* I = 56 */
(PID.TID 0000.0001)                 7.014205907742783E+10,      /* I = 57 */
(PID.TID 0000.0001)                 6.488320895111514E+10,      /* I = 58 */
(PID.TID 0000.0001)                 5.907428494299063E+10,      /* I = 59 */
(PID.TID 0000.0001)                 5.269930713599078E+10,      /* I = 60 */
(PID.TID 0000.0001)                 4.571243814190767E+10,      /* I = 61 */
(PID.TID 0000.0001)                 3.801790263325260E+10,      /* I = 62 */
(PID.TID 0000.0001)                 2.943712825251114E+10,      /* I = 63 */
(PID.TID 0000.0001)                 1.974052138509018E+10       /* I = 64 */
(PID.TID 0000.0001)     ;
(PID.TID 0000.0001) rAw =  /* rAw(1,:,1,:) ( units: m^2 ) */
(PID.TID 0000.0001)                 1.216690346714270E+10,      /* J =  1 */
(PID.TID 0000.0001)                 2.390126200743558E+10,      /* J =  2 */
(PID.TID 0000.0001)                 3.341968103208270E+10,      /* J =  3 */
(PID.TID 0000.0001)      . . .
(PID.TID 0000.0001)                 8.078743937057304E+10,      /* J = 22 */
(PID.TID 0000.0001)                 7.692702995909871E+10,      /* J = 23 */
(PID.TID 0000.0001)                 7.248875782324815E+10,      /* J = 24 */
(PID.TID 0000.0001)                 6.748840226738273E+10,      /* J = 25 */
(PID.TID 0000.0001)                 6.193257577506788E+10,      /* J = 26 */
(PID.TID 0000.0001)                 5.581203765722643E+10,      /* J = 27 */
(PID.TID 0000.0001)      . . .
(PID.TID 0000.0001)                 8.869393350723613E+10,      /* J = 46 */
(PID.TID 0000.0001)                 9.003884657168852E+10,      /* J = 47 */
(PID.TID 0000.0001)                 9.071447638299399E+10,      /* J = 48 */
(PID.TID 0000.0001)                 9.071447638299399E+10,      /* J = 49 */
(PID.TID 0000.0001)                 9.003884657168852E+10,      /* J = 50 */
(PID.TID 0000.0001)                 8.869393350723613E+10,      /* J = 51 */
(PID.TID 0000.0001)      . . .
(PID.TID 0000.0001)                 5.581203765722643E+10,      /* J = 70 */
(PID.TID 0000.0001)                 6.193257577506788E+10,      /* J = 71 */
(PID.TID 0000.0001)                 6.748840226738273E+10,      /* J = 72 */
(PID.TID 0000.0001)                 7.248875782324815E+10,      /* J = 73 */
(PID.TID 0000.0001)                 7.692702995909871E+10,      /* J = 74 */
(PID.TID 0000.0001)                 8.078743937057304E+10,      /* J = 75 */
(PID.TID 0000.0001)      . . .
(PID.TID 0000.0001)                 3.341968103208270E+10,      /* J = 94 */
(PID.TID 0000.0001)                 2.390126200743558E+10,      /* J = 95 */
(PID.TID 0000.0001)                 1.216690346714270E+10       /* J = 96 */
(PID.TID 0000.0001)     ;
(PID.TID 0000.0001) rAs =  /* rAs(:,1,:,1) ( units: m^2 ) */
(PID.TID 0000.0001)                 1.216690346714270E+10,      /* I =  1 */
(PID.TID 0000.0001)                 2.390126200743558E+10,      /* I =  2 */
(PID.TID 0000.0001)                 3.341968103208270E+10,      /* I =  3 */
(PID.TID 0000.0001)                 4.168532893152940E+10,      /* I =  4 */
(PID.TID 0000.0001)                 4.909074590409593E+10,      /* I =  5 */
(PID.TID 0000.0001)                 5.581203765722643E+10,      /* I =  6 */
(PID.TID 0000.0001)                 6.193257577506788E+10,      /* I =  7 */
(PID.TID 0000.0001)                 6.748840226738273E+10,      /* I =  8 */
(PID.TID 0000.0001)                 7.248875782324815E+10,      /* I =  9 */
(PID.TID 0000.0001)                 7.692702995909871E+10,      /* I = 10 */
(PID.TID 0000.0001)                 8.078743937057304E+10,      /* I = 11 */
(PID.TID 0000.0001)                 8.404959656062837E+10,      /* I = 12 */
(PID.TID 0000.0001)                 8.669186205742538E+10,      /* I = 13 */
(PID.TID 0000.0001)                 8.869393350723613E+10,      /* I = 14 */
(PID.TID 0000.0001)                 9.003884657168852E+10,      /* I = 15 */
(PID.TID 0000.0001)     2 @  9.071447638299399E+10,             /* I = 16: 17 */
(PID.TID 0000.0001)                 9.003884657168852E+10,      /* I = 18 */
(PID.TID 0000.0001)                 8.869393350723613E+10,      /* I = 19 */
(PID.TID 0000.0001)                 8.669186205742538E+10,      /* I = 20 */
(PID.TID 0000.0001)                 8.404959656062837E+10,      /* I = 21 */
(PID.TID 0000.0001)                 8.078743937057304E+10,      /* I = 22 */
(PID.TID 0000.0001)                 7.692702995909871E+10,      /* I = 23 */
(PID.TID 0000.0001)                 7.248875782324815E+10,      /* I = 24 */
(PID.TID 0000.0001)                 6.748840226738273E+10,      /* I = 25 */
(PID.TID 0000.0001)                 6.193257577506788E+10,      /* I = 26 */
(PID.TID 0000.0001)                 5.581203765722643E+10,      /* I = 27 */
(PID.TID 0000.0001)                 4.909074590409593E+10,      /* I = 28 */
(PID.TID 0000.0001)                 4.168532893152940E+10,      /* I = 29 */
(PID.TID 0000.0001)                 3.341968103208270E+10,      /* I = 30 */
(PID.TID 0000.0001)                 2.390126200743558E+10,      /* I = 31 */
(PID.TID 0000.0001)     2 @  1.216690346714270E+10,             /* I = 32: 33 */
(PID.TID 0000.0001)                 2.390126200743558E+10,      /* I = 34 */
(PID.TID 0000.0001)                 3.341968103208270E+10,      /* I = 35 */
(PID.TID 0000.0001)                 4.168532893152940E+10,      /* I = 36 */
(PID.TID 0000.0001)                 4.909074590409593E+10,      /* I = 37 */
(PID.TID 0000.0001)                 5.581203765722643E+10,      /* I = 38 */
(PID.TID 0000.0001)                 6.193257577506788E+10,      /* I = 39 */
(PID.TID 0000.0001)                 6.748840226738273E+10,      /* I = 40 */
(PID.TID 0000.0001)                 7.248875782324815E+10,      /* I = 41 */
(PID.TID 0000.0001)                 7.692702995909871E+10,      /* I = 42 */
(PID.TID 0000.0001)                 8.078743937057304E+10,      /* I = 43 */
(PID.TID 0000.0001)                 8.404959656062837E+10,      /* I = 44 */
(PID.TID 0000.0001)                 8.669186205742538E+10,      /* I = 45 */
(PID.TID 0000.0001)                 8.869393350723613E+10,      /* I = 46 */
(PID.TID 0000.0001)                 9.003884657168852E+10,      /* I = 47 */
(PID.TID 0000.0001)     2 @  9.071447638299399E+10,             /* I = 48: 49 */
(PID.TID 0000.0001)                 9.003884657168852E+10,      /* I = 50 */
(PID.TID 0000.0001)                 8.869393350723613E+10,      /* I = 51 */
(PID.TID 0000.0001)                 8.669186205742538E+10,      /* I = 52 */
(PID.TID 0000.0001)                 8.404959656062837E+10,      /* I = 53 */
(PID.TID 0000.0001)                 8.078743937057304E+10,      /* I = 54 */
(PID.TID 0000.0001)                 7.692702995909871E+10,      /* I = 55 */
(PID.TID 0000.0001)                 7.248875782324815E+10,      /* I = 56 */
(PID.TID 0000.0001)                 6.748840226738273E+10,      /* I = 57 */
(PID.TID 0000.0001)                 6.193257577506788E+10,      /* I = 58 */
(PID.TID 0000.0001)                 5.581203765722643E+10,      /* I = 59 */
(PID.TID 0000.0001)                 4.909074590409593E+10,      /* I = 60 */
(PID.TID 0000.0001)                 4.168532893152940E+10,      /* I = 61 */
(PID.TID 0000.0001)                 3.341968103208270E+10,      /* I = 62 */
(PID.TID 0000.0001)                 2.390126200743558E+10,      /* I = 63 */
(PID.TID 0000.0001)                 1.216690346714270E+10       /* I = 64 */
(PID.TID 0000.0001)     ;
(PID.TID 0000.0001) rAs =  /* rAs(1,:,1,:) ( units: m^2 ) */
(PID.TID 0000.0001)                 1.216690346714270E+10,      /* J =  1 */
(PID.TID 0000.0001)                 1.974052138506315E+10,      /* J =  2 */
(PID.TID 0000.0001)                 2.943712825252015E+10,      /* J =  3 */
(PID.TID 0000.0001)      . . .
(PID.TID 0000.0001)                 8.254500894890933E+10,      /* J = 22 */
(PID.TID 0000.0001)                 7.898934631434262E+10,      /* J = 23 */
(PID.TID 0000.0001)                 7.484854821844795E+10,      /* J = 24 */
(PID.TID 0000.0001)                 7.014205907742783E+10,      /* J = 25 */
(PID.TID 0000.0001)                 6.488320895111514E+10,      /* J = 26 */
(PID.TID 0000.0001)                 5.907428494299063E+10,      /* J = 27 */
(PID.TID 0000.0001)      . . .
(PID.TID 0000.0001)                 8.781353403175085E+10,      /* J = 46 */
(PID.TID 0000.0001)                 8.948571540392021E+10,      /* J = 47 */
(PID.TID 0000.0001)                 9.049530583086168E+10,      /* J = 48 */
(PID.TID 0000.0001)                 9.083293515008307E+10,      /* J = 49 */
(PID.TID 0000.0001)                 9.049530583087070E+10,      /* J = 50 */
(PID.TID 0000.0001)                 8.948571540391121E+10,      /* J = 51 */
(PID.TID 0000.0001)      . . .
(PID.TID 0000.0001)                 5.269930713599979E+10,      /* J = 70 */
(PID.TID 0000.0001)                 5.907428494299063E+10,      /* J = 71 */
(PID.TID 0000.0001)                 6.488320895111514E+10,      /* J = 72 */
(PID.TID 0000.0001)                 7.014205907741882E+10,      /* J = 73 */
(PID.TID 0000.0001)                 7.484854821847499E+10,      /* J = 74 */
(PID.TID 0000.0001)                 7.898934631431560E+10,      /* J = 75 */
(PID.TID 0000.0001)      . . .
(PID.TID 0000.0001)                 3.801790263325260E+10,      /* J = 94 */
(PID.TID 0000.0001)                 2.943712825251114E+10,      /* J = 95 */
(PID.TID 0000.0001)                 1.974052138509018E+10       /* J = 96 */
(PID.TID 0000.0001)     ;
(PID.TID 0000.0001) globalArea = /* Integrated horizontal Area (m^2) */
(PID.TID 0000.0001)                 5.099043637817220E+14
(PID.TID 0000.0001)     ;
(PID.TID 0000.0001) hasWetCSCorners = /* Domain contains CS corners (True/False) */
(PID.TID 0000.0001)                   T
(PID.TID 0000.0001)     ;
(PID.TID 0000.0001) // =======================================================
(PID.TID 0000.0001) // End of Model config. summary
(PID.TID 0000.0001) // =======================================================
(PID.TID 0000.0001) 
(PID.TID 0000.0001) == Packages configuration : Check & print summary ==
(PID.TID 0000.0001) 
(PID.TID 0000.0001) GAD_CHECK: #define ALLOW_GENERIC_ADVDIFF
(PID.TID 0000.0001) // =======================================================
(PID.TID 0000.0001) // Check Model config. (CONFIG_CHECK):
(PID.TID 0000.0001) // CONFIG_CHECK : Normal End
(PID.TID 0000.0001) // =======================================================
(PID.TID 0000.0001) 
(PID.TID 0000.0001)  MDS_READ_FIELD: opening global file: T.init
(PID.TID 0000.0001)  MDS_READ_FIELD: opening global file: S.init
(PID.TID 0000.0001) Start initial hydrostatic pressure computation
(PID.TID 0000.0001) Pressure is predetermined for buoyancyRelation OCEANIC
(PID.TID 0000.0001) 
(PID.TID 0000.0001)  write diagnostics summary to file ioUnit:      6
Iter.Nb:         0 ; Time(s):  0.0000000000000E+00
------------------------------------------------------------------------
2D/3D diagnostics: Number of lists:     1
------------------------------------------------------------------------
listId=    1 ; file name: ts_Diag
 nFlds, nActive,       freq     &     phase        , nLev               
    2  |    2  |    -86400.000000         0.000000 |   1
 levels:   1
 diag# | name   |   ipt  |  iMate | kLev|   count |   mate.C|           
    26 |THETA   |      1 |      0 |   1 |       0 |
    27 |SALT    |      2 |      0 |   1 |       0 |
------------------------------------------------------------------------
Global & Regional Statistics diagnostics: Number of lists:     1
------------------------------------------------------------------------
listId=   1 ; file name: dynStDiag
 nFlds, nActive,       freq     &     phase        |                    
    3  |    3  |    -21600.000000         0.000000 |
 Regions:   0
 diag# | name   |   ipt  |  iMate |    Volume   |   mate-Vol. |         
    26 |THETA   |      1 |      0 | 0.00000E+00 |
    27 |SALT    |      2 |      0 | 0.00000E+00 |
   140 |SM_v_SLT|      3 |      0 | 0.00000E+00 |
------------------------------------------------------------------------
(PID.TID 0000.0001) // =======================================================
(PID.TID 0000.0001) // Model current state
(PID.TID 0000.0001) // =======================================================
(PID.TID 0000.0001) 
(PID.TID 0000.0001) // =======================================================
(PID.TID 0000.0001) // Begin MONITOR dynamic field statistics
(PID.TID 0000.0001) // =======================================================
(PID.TID 0000.0001) %MON time_tsnumber                =                     0
(PID.TID 0000.0001) %MON time_secondsf                =   0.0000000000000E+00
(PID.TID 0000.0001) %MON dynstat_eta_max              =   0.0000000000000E+00
(PID.TID 0000.0001) %MON dynstat_eta_min              =   0.0000000000000E+00
(PID.TID 0000.0001) %MON dynstat_eta_mean             =   0.0000000000000E+00
(PID.TID 0000.0001) %MON dynstat_eta_sd               =   0.0000000000000E+00
(PID.TID 0000.0001) %MON dynstat_eta_del2             =   0.0000000000000E+00
(PID.TID 0000.0001) %MON dynstat_uvel_max             =   3.8588909729197E+01
(PID.TID 0000.0001) %MON dynstat_uvel_min             =  -2.6640751857532E+01
(PID.TID 0000.0001) %MON dynstat_uvel_mean            =   1.1767801879505E+01
(PID.TID 0000.0001) %MON dynstat_uvel_sd              =   1.8925337749668E+01
(PID.TID 0000.0001) %MON dynstat_uvel_del2            =   1.4484824103844E-02
(PID.TID 0000.0001) %MON dynstat_vvel_max             =   3.8588909729197E+01
(PID.TID 0000.0001) %MON dynstat_vvel_min             =  -2.6640751857532E+01
(PID.TID 0000.0001) %MON dynstat_vvel_mean            =   1.1767801879505E+01
(PID.TID 0000.0001) %MON dynstat_vvel_sd              =   1.8925337749668E+01
(PID.TID 0000.0001) %MON dynstat_vvel_del2            =   1.4484824103844E-02
(PID.TID 0000.0001) %MON dynstat_wvel_max             =   6.1243529367355E-15
(PID.TID 0000.0001) %MON dynstat_wvel_min             =  -6.1243529367429E-15
(PID.TID 0000.0001) %MON dynstat_wvel_mean            =   2.1545860175660E-18
(PID.TID 0000.0001) %MON dynstat_wvel_sd              =   1.4391378503775E-15
(PID.TID 0000.0001) %MON dynstat_wvel_del2            =   7.4668782645351E-17
(PID.TID 0000.0001) %MON dynstat_theta_max            =   1.9650032982072E+00
(PID.TID 0000.0001) %MON dynstat_theta_min            =   1.0000000000000E+00
(PID.TID 0000.0001) %MON dynstat_theta_mean           =   1.0066888037826E+00
(PID.TID 0000.0001) %MON dynstat_theta_sd             =   6.1914012152681E-02
(PID.TID 0000.0001) %MON dynstat_theta_del2           =   1.6572386439234E-04
(PID.TID 0000.0001) %MON dynstat_salt_max             =   1.9825223776777E+00
(PID.TID 0000.0001) %MON dynstat_salt_min             =   1.0000000000000E+00
(PID.TID 0000.0001) %MON dynstat_salt_mean            =   1.0066901484881E+00
(PID.TID 0000.0001) %MON dynstat_salt_sd              =   6.1913618073032E-02
(PID.TID 0000.0001) %MON dynstat_salt_del2            =   1.5643393897556E-04
(PID.TID 0000.0001) %MON advcfl_uvel_max              =   7.6804612966358E-01
(PID.TID 0000.0001) %MON advcfl_vvel_max              =   7.6804612966358E-01
(PID.TID 0000.0001) %MON advcfl_wvel_max              =   3.3071505858412E-16
(PID.TID 0000.0001) %MON advcfl_W_hf_max              =   0.0000000000000E+00
(PID.TID 0000.0001) %MON pe_b_mean                    =   0.0000000000000E+00
(PID.TID 0000.0001) %MON ke_max                       =   7.4475958662786E+02
(PID.TID 0000.0001) %MON ke_mean                      =   4.9660795630338E+02
(PID.TID 0000.0001) %MON ke_vol                       =   5.0990436378172E+19
(PID.TID 0000.0001) // =======================================================
(PID.TID 0000.0001) // End MONITOR dynamic field statistics
(PID.TID 0000.0001) // =======================================================
 Computing Diagnostic #     26  THETA        Counter:       1   Parms: SMR     MR      
 Computing Diagnostic #     27  SALT         Counter:       1   Parms: SMR     MR      
 Compute Stats, Diag. #     26  THETA     vol(   0 ): 5.099E+19  Parms: SMR     MR      
 Compute Stats, Diag. #     27  SALT      vol(   0 ): 5.099E+19  Parms: SMR     MR      
 Compute Stats, Diag. #    140  SM_v_SLT  vol(   0 ): 5.099E+19  Parms: SM P    MR      
(PID.TID 0000.0001) // =======================================================
(PID.TID 0000.0001) // Begin MONITOR dynamic field statistics
(PID.TID 0000.0001) // =======================================================
(PID.TID 0000.0001) %MON time_tsnumber                =                     8
(PID.TID 0000.0001) %MON time_secondsf                =   2.1600000000000E+04
(PID.TID 0000.0001) %MON dynstat_eta_max              =   0.0000000000000E+00
(PID.TID 0000.0001) %MON dynstat_eta_min              =   0.0000000000000E+00
(PID.TID 0000.0001) %MON dynstat_eta_mean             =   0.0000000000000E+00
(PID.TID 0000.0001) %MON dynstat_eta_sd               =   0.0000000000000E+00
(PID.TID 0000.0001) %MON dynstat_eta_del2             =   0.0000000000000E+00
(PID.TID 0000.0001) %MON dynstat_uvel_max             =   3.8588909729197E+01
(PID.TID 0000.0001) %MON dynstat_uvel_min             =  -2.6640751857532E+01
(PID.TID 0000.0001) %MON dynstat_uvel_mean            =   1.1767801879505E+01
(PID.TID 0000.0001) %MON dynstat_uvel_sd              =   1.8925337749668E+01
(PID.TID 0000.0001) %MON dynstat_uvel_del2            =   1.4484824103844E-02
(PID.TID 0000.0001) %MON dynstat_vvel_max             =   3.8588909729197E+01
(PID.TID 0000.0001) %MON dynstat_vvel_min             =  -2.6640751857532E+01
(PID.TID 0000.0001) %MON dynstat_vvel_mean            =   1.1767801879505E+01
(PID.TID 0000.0001) %MON dynstat_vvel_sd              =   1.8925337749668E+01
(PID.TID 0000.0001) %MON dynstat_vvel_del2            =   1.4484824103844E-02
(PID.TID 0000.0001) %MON dynstat_wvel_max             =   6.1243529367355E-15
(PID.TID 0000.0001) %MON dynstat_wvel_min             =  -6.1243529367429E-15
(PID.TID 0000.0001) %MON dynstat_wvel_mean            =   2.1545860175660E-18
(PID.TID 0000.0001) %MON dynstat_wvel_sd              =   1.4391378503775E-15
(PID.TID 0000.0001) %MON dynstat_wvel_del2            =   7.4668782645351E-17
(PID.TID 0000.0001) %MON dynstat_theta_max            =   1.9534232276732E+00
(PID.TID 0000.0001) %MON dynstat_theta_min            =   9.9994709296588E-01
(PID.TID 0000.0001) %MON dynstat_theta_mean           =   1.0066888037826E+00
(PID.TID 0000.0001) %MON dynstat_theta_sd             =   6.1555108773030E-02
(PID.TID 0000.0001) %MON dynstat_theta_del2           =   1.6383591850961E-04
(PID.TID 0000.0001) %MON dynstat_salt_max             =   1.9788543077067E+00
(PID.TID 0000.0001) %MON dynstat_salt_min             =   9.9856558533397E-01
(PID.TID 0000.0001) %MON dynstat_salt_mean            =   1.0066901484881E+00
(PID.TID 0000.0001) %MON dynstat_salt_sd              =   6.1154555958744E-02
(PID.TID 0000.0001) %MON dynstat_salt_del2            =   1.4934505839048E-04
(PID.TID 0000.0001) %MON advcfl_uvel_max              =   7.6804612966358E-01
(PID.TID 0000.0001) %MON advcfl_vvel_max              =   7.6804612966358E-01
(PID.TID 0000.0001) %MON advcfl_wvel_max              =   3.3071505858412E-16
(PID.TID 0000.0001) %MON advcfl_W_hf_max              =   0.0000000000000E+00
(PID.TID 0000.0001) %MON pe_b_mean                    =   0.0000000000000E+00
(PID.TID 0000.0001) %MON ke_max                       =   7.4475958662786E+02
(PID.TID 0000.0001) %MON ke_mean                      =   4.9660795630338E+02
(PID.TID 0000.0001) %MON ke_vol                       =   5.0990436378172E+19
(PID.TID 0000.0001) // =======================================================
(PID.TID 0000.0001) // End MONITOR dynamic field statistics
(PID.TID 0000.0001) // =======================================================
 Compute Stats, Diag. #     26  THETA     vol(   0 ): 5.099E+19  Parms: SMR     MR      
 Compute Stats, Diag. #     27  SALT      vol(   0 ): 5.099E+19  Parms: SMR     MR      
 Compute Stats, Diag. #    140  SM_v_SLT  vol(   0 ): 5.099E+19  Parms: SM P    MR      
(PID.TID 0000.0001) // =======================================================
(PID.TID 0000.0001) // Begin MONITOR dynamic field statistics
(PID.TID 0000.0001) // =======================================================
(PID.TID 0000.0001) %MON time_tsnumber                =                    16
(PID.TID 0000.0001) %MON time_secondsf                =   4.3200000000000E+04
(PID.TID 0000.0001) %MON dynstat_eta_max              =   0.0000000000000E+00
(PID.TID 0000.0001) %MON dynstat_eta_min              =   0.0000000000000E+00
(PID.TID 0000.0001) %MON dynstat_eta_mean             =   0.0000000000000E+00
(PID.TID 0000.0001) %MON dynstat_eta_sd               =   0.0000000000000E+00
(PID.TID 0000.0001) %MON dynstat_eta_del2             =   0.0000000000000E+00
(PID.TID 0000.0001) %MON dynstat_uvel_max             =   3.8588909729197E+01
(PID.TID 0000.0001) %MON dynstat_uvel_min             =  -2.6640751857532E+01
(PID.TID 0000.0001) %MON dynstat_uvel_mean            =   1.1767801879505E+01
(PID.TID 0000.0001) %MON dynstat_uvel_sd              =   1.8925337749668E+01
(PID.TID 0000.0001) %MON dynstat_uvel_del2            =   1.4484824103844E-02
(PID.TID 0000.0001) %MON dynstat_vvel_max             =   3.8588909729197E+01
(PID.TID 0000.0001) %MON dynstat_vvel_min             =  -2.6640751857532E+01
(PID.TID 0000.0001) %MON dynstat_vvel_mean            =   1.1767801879505E+01
(PID.TID 0000.0001) %MON dynstat_vvel_sd              =   1.8925337749668E+01
(PID.TID 0000.0001) %MON dynstat_vvel_del2            =   1.4484824103844E-02
(PID.TID 0000.0001) %MON dynstat_wvel_max             =   6.1243529367355E-15
(PID.TID 0000.0001) %MON dynstat_wvel_min             =  -6.1243529367429E-15
(PID.TID 0000.0001) %MON dynstat_wvel_mean            =   2.1545860175660E-18
(PID.TID 0000.0001) %MON dynstat_wvel_sd              =   1.4391378503775E-15
(PID.TID 0000.0001) %MON dynstat_wvel_del2            =   7.4668782645351E-17
(PID.TID 0000.0001) %MON dynstat_theta_max            =   1.9448349430035E+00
(PID.TID 0000.0001) %MON dynstat_theta_min            =   9.9997387728294E-01
(PID.TID 0000.0001) %MON dynstat_theta_mean           =   1.0066888037826E+00
(PID.TID 0000.0001) %MON dynstat_theta_sd             =   6.1238795391038E-02
(PID.TID 0000.0001) %MON dynstat_theta_del2           =   1.5876126348128E-04
(PID.TID 0000.0001) %MON dynstat_salt_max             =   1.9753691072026E+00
(PID.TID 0000.0001) %MON dynstat_salt_min             =   9.9835612046648E-01
(PID.TID 0000.0001) %MON dynstat_salt_mean            =   1.0066901484881E+00
(PID.TID 0000.0001) %MON dynstat_salt_sd              =   6.1033864121582E-02
(PID.TID 0000.0001) %MON dynstat_salt_del2            =   1.4602100026275E-04
(PID.TID 0000.0001) %MON advcfl_uvel_max              =   7.6804612966358E-01
(PID.TID 0000.0001) %MON advcfl_vvel_max              =   7.6804612966358E-01
(PID.TID 0000.0001) %MON advcfl_wvel_max              =   3.3071505858412E-16
(PID.TID 0000.0001) %MON advcfl_W_hf_max              =   0.0000000000000E+00
(PID.TID 0000.0001) %MON pe_b_mean                    =   0.0000000000000E+00
(PID.TID 0000.0001) %MON ke_max                       =   7.4475958662786E+02
(PID.TID 0000.0001) %MON ke_mean                      =   4.9660795630338E+02
(PID.TID 0000.0001) %MON ke_vol                       =   5.0990436378172E+19
(PID.TID 0000.0001) // =======================================================
(PID.TID 0000.0001) // End MONITOR dynamic field statistics
(PID.TID 0000.0001) // =======================================================
 Compute Stats, Diag. #     26  THETA     vol(   0 ): 5.099E+19  Parms: SMR     MR      
 Compute Stats, Diag. #     27  SALT      vol(   0 ): 5.099E+19  Parms: SMR     MR      
 Compute Stats, Diag. #    140  SM_v_SLT  vol(   0 ): 5.099E+19  Parms: SM P    MR      
(PID.TID 0000.0001) // =======================================================
(PID.TID 0000.0001) // Begin MONITOR dynamic field statistics
(PID.TID 0000.0001) // =======================================================
(PID.TID 0000.0001) %MON time_tsnumber                =                    24
(PID.TID 0000.0001) %MON time_secondsf                =   6.4800000000000E+04
(PID.TID 0000.0001) %MON dynstat_eta_max              =   0.0000000000000E+00
(PID.TID 0000.0001) %MON dynstat_eta_min              =   0.0000000000000E+00
(PID.TID 0000.0001) %MON dynstat_eta_mean             =   0.0000000000000E+00
(PID.TID 0000.0001) %MON dynstat_eta_sd               =   0.0000000000000E+00
(PID.TID 0000.0001) %MON dynstat_eta_del2             =   0.0000000000000E+00
(PID.TID 0000.0001) %MON dynstat_uvel_max             =   3.8588909729197E+01
(PID.TID 0000.0001) %MON dynstat_uvel_min             =  -2.6640751857532E+01
(PID.TID 0000.0001) %MON dynstat_uvel_mean            =   1.1767801879505E+01
(PID.TID 0000.0001) %MON dynstat_uvel_sd              =   1.8925337749668E+01
(PID.TID 0000.0001) %MON dynstat_uvel_del2            =   1.4484824103844E-02
(PID.TID 0000.0001) %MON dynstat_vvel_max             =   3.8588909729197E+01
(PID.TID 0000.0001) %MON dynstat_vvel_min             =  -2.6640751857532E+01
(PID.TID 0000.0001) %MON dynstat_vvel_mean            =   1.1767801879505E+01
(PID.TID 0000.0001) %MON dynstat_vvel_sd              =   1.8925337749668E+01
(PID.TID 0000.0001) %MON dynstat_vvel_del2            =   1.4484824103844E-02
(PID.TID 0000.0001) %MON dynstat_wvel_max             =   6.1243529367355E-15
(PID.TID 0000.0001) %MON dynstat_wvel_min             =  -6.1243529367429E-15
(PID.TID 0000.0001) %MON dynstat_wvel_mean            =   2.1545860175660E-18
(PID.TID 0000.0001) %MON dynstat_wvel_sd              =   1.4391378503775E-15
(PID.TID 0000.0001) %MON dynstat_wvel_del2            =   7.4668782645351E-17
(PID.TID 0000.0001) %MON dynstat_theta_max            =   1.9387172356076E+00
(PID.TID 0000.0001) %MON dynstat_theta_min            =   9.9997975562761E-01
(PID.TID 0000.0001) %MON dynstat_theta_mean           =   1.0066888037826E+00
(PID.TID 0000.0001) %MON dynstat_theta_sd             =   6.0949789157971E-02
(PID.TID 0000.0001) %MON dynstat_theta_del2           =   1.5410304225302E-04
(PID.TID 0000.0001) %MON dynstat_salt_max             =   1.9642626085789E+00
(PID.TID 0000.0001) %MON dynstat_salt_min             =   9.9793045513746E-01
(PID.TID 0000.0001) %MON dynstat_salt_mean            =   1.0066901484881E+00
(PID.TID 0000.0001) %MON dynstat_salt_sd              =   6.1048311677994E-02
(PID.TID 0000.0001) %MON dynstat_salt_del2            =   1.4035024457151E-04
(PID.TID 0000.0001) %MON advcfl_uvel_max              =   7.6804612966358E-01
(PID.TID 0000.0001) %MON advcfl_vvel_max              =   7.6804612966358E-01
(PID.TID 0000.0001) %MON advcfl_wvel_max              =   3.3071505858412E-16
(PID.TID 0000.0001) %MON advcfl_W_hf_max              =   0.0000000000000E+00
(PID.TID 0000.0001) %MON pe_b_mean                    =   0.0000000000000E+00
(PID.TID 0000.0001) %MON ke_max                       =   7.4475958662786E+02
(PID.TID 0000.0001) %MON ke_mean                      =   4.9660795630338E+02
(PID.TID 0000.0001) %MON ke_vol                       =   5.0990436378172E+19
(PID.TID 0000.0001) // =======================================================
(PID.TID 0000.0001) // End MONITOR dynamic field statistics
(PID.TID 0000.0001) // =======================================================
 Compute Stats, Diag. #     26  THETA     vol(   0 ): 5.099E+19  Parms: SMR     MR      
 Compute Stats, Diag. #     27  SALT      vol(   0 ): 5.099E+19  Parms: SMR     MR      
 Compute Stats, Diag. #    140  SM_v_SLT  vol(   0 ): 5.099E+19  Parms: SM P    MR      
(PID.TID 0000.0001) // =======================================================
(PID.TID 0000.0001) // Begin MONITOR dynamic field statistics
(PID.TID 0000.0001) // =======================================================
(PID.TID 0000.0001) %MON time_tsnumber                =                    32
(PID.TID 0000.0001) %MON time_secondsf                =   8.6400000000000E+04
(PID.TID 0000.0001) %MON dynstat_eta_max              =   0.0000000000000E+00
(PID.TID 0000.0001) %MON dynstat_eta_min              =   0.0000000000000E+00
(PID.TID 0000.0001) %MON dynstat_eta_mean             =   0.0000000000000E+00
(PID.TID 0000.0001) %MON dynstat_eta_sd               =   0.0000000000000E+00
(PID.TID 0000.0001) %MON dynstat_eta_del2             =   0.0000000000000E+00
(PID.TID 0000.0001) %MON dynstat_uvel_max             =   3.8588909729197E+01
(PID.TID 0000.0001) %MON dynstat_uvel_min             =  -2.6640751857532E+01
(PID.TID 0000.0001) %MON dynstat_uvel_mean            =   1.1767801879505E+01
(PID.TID 0000.0001) %MON dynstat_uvel_sd              =   1.8925337749668E+01
(PID.TID 0000.0001) %MON dynstat_uvel_del2            =   1.4484824103844E-02
(PID.TID 0000.0001) %MON dynstat_vvel_max             =   3.8588909729197E+01
(PID.TID 0000.0001) %MON dynstat_vvel_min             =  -2.6640751857532E+01
(PID.TID 0000.0001) %MON dynstat_vvel_mean            =   1.1767801879505E+01
(PID.TID 0000.0001) %MON dynstat_vvel_sd              =   1.8925337749668E+01
(PID.TID 0000.0001) %MON dynstat_vvel_del2            =   1.4484824103844E-02
(PID.TID 0000.0001) %MON dynstat_wvel_max             =   6.1243529367355E-15
(PID.TID 0000.0001) %MON dynstat_wvel_min             =  -6.1243529367429E-15
(PID.TID 0000.0001) %MON dynstat_wvel_mean            =   2.1545860175660E-18
(PID.TID 0000.0001) %MON dynstat_wvel_sd              =   1.4391378503775E-15
(PID.TID 0000.0001) %MON dynstat_wvel_del2            =   7.4668782645351E-17
(PID.TID 0000.0001) %MON dynstat_theta_max            =   1.9340395001657E+00
(PID.TID 0000.0001) %MON dynstat_theta_min            =   9.9998341321978E-01
(PID.TID 0000.0001) %MON dynstat_theta_mean           =   1.0066888037826E+00
(PID.TID 0000.0001) %MON dynstat_theta_sd             =   6.0687675837245E-02
(PID.TID 0000.0001) %MON dynstat_theta_del2           =   1.5001895968452E-04
(PID.TID 0000.0001) %MON dynstat_salt_max             =   1.9786813588926E+00
(PID.TID 0000.0001) %MON dynstat_salt_min             =   9.9857762324052E-01
(PID.TID 0000.0001) %MON dynstat_salt_mean            =   1.0066901484881E+00
(PID.TID 0000.0001) %MON dynstat_salt_sd              =   6.1116553374734E-02
(PID.TID 0000.0001) %MON dynstat_salt_del2            =   1.3401485784434E-04
(PID.TID 0000.0001) %MON advcfl_uvel_max              =   7.6804612966358E-01
(PID.TID 0000.0001) %MON advcfl_vvel_max              =   7.6804612966358E-01
(PID.TID 0000.0001) %MON advcfl_wvel_max              =   3.3071505858412E-16
(PID.TID 0000.0001) %MON advcfl_W_hf_max              =   0.0000000000000E+00
(PID.TID 0000.0001) %MON pe_b_mean                    =   0.0000000000000E+00
(PID.TID 0000.0001) %MON ke_max                       =   7.4475958662786E+02
(PID.TID 0000.0001) %MON ke_mean                      =   4.9660795630338E+02
(PID.TID 0000.0001) %MON ke_vol                       =   5.0990436378172E+19
(PID.TID 0000.0001) // =======================================================
(PID.TID 0000.0001) // End MONITOR dynamic field statistics
(PID.TID 0000.0001) // =======================================================
 Computing Diagnostic #     26  THETA        Counter:       1   Parms: SMR     MR      
 Computing Diagnostic #     27  SALT         Counter:       1   Parms: SMR     MR      
 Compute Stats, Diag. #     26  THETA     vol(   0 ): 5.099E+19  Parms: SMR     MR      
 Compute Stats, Diag. #     27  SALT      vol(   0 ): 5.099E+19  Parms: SMR     MR      
 Compute Stats, Diag. #    140  SM_v_SLT  vol(   0 ): 5.099E+19  Parms: SM P    MR      
(PID.TID 0000.0001) // =======================================================
(PID.TID 0000.0001) // Begin MONITOR dynamic field statistics
(PID.TID 0000.0001) // =======================================================
(PID.TID 0000.0001) %MON time_tsnumber                =                    40
(PID.TID 0000.0001) %MON time_secondsf                =   1.0800000000000E+05
(PID.TID 0000.0001) %MON dynstat_eta_max              =   0.0000000000000E+00
(PID.TID 0000.0001) %MON dynstat_eta_min              =   0.0000000000000E+00
(PID.TID 0000.0001) %MON dynstat_eta_mean             =   0.0000000000000E+00
(PID.TID 0000.0001) %MON dynstat_eta_sd               =   0.0000000000000E+00
(PID.TID 0000.0001) %MON dynstat_eta_del2             =   0.0000000000000E+00
(PID.TID 0000.0001) %MON dynstat_uvel_max             =   3.8588909729197E+01
(PID.TID 0000.0001) %MON dynstat_uvel_min             =  -2.6640751857532E+01
(PID.TID 0000.0001) %MON dynstat_uvel_mean            =   1.1767801879505E+01
(PID.TID 0000.0001) %MON dynstat_uvel_sd              =   1.8925337749668E+01
(PID.TID 0000.0001) %MON dynstat_uvel_del2            =   1.4484824103844E-02
(PID.TID 0000.0001) %MON dynstat_vvel_max             =   3.8588909729197E+01
(PID.TID 0000.0001) %MON dynstat_vvel_min             =  -2.6640751857532E+01
(PID.TID 0000.0001) %MON dynstat_vvel_mean            =   1.1767801879505E+01
(PID.TID 0000.0001) %MON dynstat_vvel_sd              =   1.8925337749668E+01
(PID.TID 0000.0001) %MON dynstat_vvel_del2            =   1.4484824103844E-02
(PID.TID 0000.0001) %MON dynstat_wvel_max             =   6.1243529367355E-15
(PID.TID 0000.0001) %MON dynstat_wvel_min             =  -6.1243529367429E-15
(PID.TID 0000.0001) %MON dynstat_wvel_mean            =   2.1545860175660E-18
(PID.TID 0000.0001) %MON dynstat_wvel_sd              =   1.4391378503775E-15
(PID.TID 0000.0001) %MON dynstat_wvel_del2            =   7.4668782645351E-17
(PID.TID 0000.0001) %MON dynstat_theta_max            =   1.9263642763800E+00
(PID.TID 0000.0001) %MON dynstat_theta_min            =   9.9998570564954E-01
(PID.TID 0000.0001) %MON dynstat_theta_mean           =   1.0066888037826E+00
(PID.TID 0000.0001) %MON dynstat_theta_sd             =   6.0448979404160E-02
(PID.TID 0000.0001) %MON dynstat_theta_del2           =   1.4604864586385E-04
(PID.TID 0000.0001) %MON dynstat_salt_max             =   1.9770813348448E+00
(PID.TID 0000.0001) %MON dynstat_salt_min             =   9.9886870058599E-01
(PID.TID 0000.0001) %MON dynstat_salt_mean            =   1.0066901484881E+00
(PID.TID 0000.0001) %MON dynstat_salt_sd              =   6.1161031946388E-02
(PID.TID 0000.0001) %MON dynstat_salt_del2            =   1.2439466981027E-04
(PID.TID 0000.0001) %MON advcfl_uvel_max              =   7.6804612966358E-01
(PID.TID 0000.0001) %MON advcfl_vvel_max              =   7.6804612966358E-01
(PID.TID 0000.0001) %MON advcfl_wvel_max              =   3.3071505858412E-16
(PID.TID 0000.0001) %MON advcfl_W_hf_max              =   0.0000000000000E+00
(PID.TID 0000.0001) %MON pe_b_mean                    =   0.0000000000000E+00
(PID.TID 0000.0001) %MON ke_max                       =   7.4475958662786E+02
(PID.TID 0000.0001) %MON ke_mean                      =   4.9660795630338E+02
(PID.TID 0000.0001) %MON ke_vol                       =   5.0990436378172E+19
(PID.TID 0000.0001) // =======================================================
(PID.TID 0000.0001) // End MONITOR dynamic field statistics
(PID.TID 0000.0001) // =======================================================
 Compute Stats, Diag. #     26  THETA     vol(   0 ): 5.099E+19  Parms: SMR     MR      
 Compute Stats, Diag. #     27  SALT      vol(   0 ): 5.099E+19  Parms: SMR     MR      
 Compute Stats, Diag. #    140  SM_v_SLT  vol(   0 ): 5.099E+19  Parms: SM P    MR      
(PID.TID 0000.0001) // =======================================================
(PID.TID 0000.0001) // Begin MONITOR dynamic field statistics
(PID.TID 0000.0001) // =======================================================
(PID.TID 0000.0001) %MON time_tsnumber                =                    48
(PID.TID 0000.0001) %MON time_secondsf                =   1.2960000000000E+05
(PID.TID 0000.0001) %MON dynstat_eta_max              =   0.0000000000000E+00
(PID.TID 0000.0001) %MON dynstat_eta_min              =   0.0000000000000E+00
(PID.TID 0000.0001) %MON dynstat_eta_mean             =   0.0000000000000E+00
(PID.TID 0000.0001) %MON dynstat_eta_sd               =   0.0000000000000E+00
(PID.TID 0000.0001) %MON dynstat_eta_del2             =   0.0000000000000E+00
(PID.TID 0000.0001) %MON dynstat_uvel_max             =   3.8588909729197E+01
(PID.TID 0000.0001) %MON dynstat_uvel_min             =  -2.6640751857532E+01
(PID.TID 0000.0001) %MON dynstat_uvel_mean            =   1.1767801879505E+01
(PID.TID 0000.0001) %MON dynstat_uvel_sd              =   1.8925337749668E+01
(PID.TID 0000.0001) %MON dynstat_uvel_del2            =   1.4484824103844E-02
(PID.TID 0000.0001) %MON dynstat_vvel_max             =   3.8588909729197E+01
(PID.TID 0000.0001) %MON dynstat_vvel_min             =  -2.6640751857532E+01
(PID.TID 0000.0001) %MON dynstat_vvel_mean            =   1.1767801879505E+01
(PID.TID 0000.0001) %MON dynstat_vvel_sd              =   1.8925337749668E+01
(PID.TID 0000.0001) %MON dynstat_vvel_del2            =   1.4484824103844E-02
(PID.TID 0000.0001) %MON dynstat_wvel_max             =   6.1243529367355E-15
(PID.TID 0000.0001) %MON dynstat_wvel_min             =  -6.1243529367429E-15
(PID.TID 0000.0001) %MON dynstat_wvel_mean            =   2.1545860175660E-18
(PID.TID 0000.0001) %MON dynstat_wvel_sd              =   1.4391378503775E-15
(PID.TID 0000.0001) %MON dynstat_wvel_del2            =   7.4668782645351E-17
(PID.TID 0000.0001) %MON dynstat_theta_max            =   1.9160010247992E+00
(PID.TID 0000.0001) %MON dynstat_theta_min            =   9.9998703832048E-01
(PID.TID 0000.0001) %MON dynstat_theta_mean           =   1.0066888037826E+00
(PID.TID 0000.0001) %MON dynstat_theta_sd             =   6.0224742278244E-02
(PID.TID 0000.0001) %MON dynstat_theta_del2           =   1.4357274288269E-04
(PID.TID 0000.0001) %MON dynstat_salt_max             =   1.9850499039468E+00
(PID.TID 0000.0001) %MON dynstat_salt_min             =   9.9872300095678E-01
(PID.TID 0000.0001) %MON dynstat_salt_mean            =   1.0066901484881E+00
(PID.TID 0000.0001) %MON dynstat_salt_sd              =   6.1163522611098E-02
(PID.TID 0000.0001) %MON dynstat_salt_del2            =   1.1762945862588E-04
(PID.TID 0000.0001) %MON advcfl_uvel_max              =   7.6804612966358E-01
(PID.TID 0000.0001) %MON advcfl_vvel_max              =   7.6804612966358E-01
(PID.TID 0000.0001) %MON advcfl_wvel_max              =   3.3071505858412E-16
(PID.TID 0000.0001) %MON advcfl_W_hf_max              =   0.0000000000000E+00
(PID.TID 0000.0001) %MON pe_b_mean                    =   0.0000000000000E+00
(PID.TID 0000.0001) %MON ke_max                       =   7.4475958662786E+02
(PID.TID 0000.0001) %MON ke_mean                      =   4.9660795630338E+02
(PID.TID 0000.0001) %MON ke_vol                       =   5.0990436378172E+19
(PID.TID 0000.0001) // =======================================================
(PID.TID 0000.0001) // End MONITOR dynamic field statistics
(PID.TID 0000.0001) // =======================================================
 Compute Stats, Diag. #     26  THETA     vol(   0 ): 5.099E+19  Parms: SMR     MR      
 Compute Stats, Diag. #     27  SALT      vol(   0 ): 5.099E+19  Parms: SMR     MR      
 Compute Stats, Diag. #    140  SM_v_SLT  vol(   0 ): 5.099E+19  Parms: SM P    MR      
(PID.TID 0000.0001) // =======================================================
(PID.TID 0000.0001) // Begin MONITOR dynamic field statistics
(PID.TID 0000.0001) // =======================================================
(PID.TID 0000.0001) %MON time_tsnumber                =                    56
(PID.TID 0000.0001) %MON time_secondsf                =   1.5120000000000E+05
(PID.TID 0000.0001) %MON dynstat_eta_max              =   0.0000000000000E+00
(PID.TID 0000.0001) %MON dynstat_eta_min              =   0.0000000000000E+00
(PID.TID 0000.0001) %MON dynstat_eta_mean             =   0.0000000000000E+00
(PID.TID 0000.0001) %MON dynstat_eta_sd               =   0.0000000000000E+00
(PID.TID 0000.0001) %MON dynstat_eta_del2             =   0.0000000000000E+00
(PID.TID 0000.0001) %MON dynstat_uvel_max             =   3.8588909729197E+01
(PID.TID 0000.0001) %MON dynstat_uvel_min             =  -2.6640751857532E+01
(PID.TID 0000.0001) %MON dynstat_uvel_mean            =   1.1767801879505E+01
(PID.TID 0000.0001) %MON dynstat_uvel_sd              =   1.8925337749668E+01
(PID.TID 0000.0001) %MON dynstat_uvel_del2            =   1.4484824103844E-02
(PID.TID 0000.0001) %MON dynstat_vvel_max             =   3.8588909729197E+01
(PID.TID 0000.0001) %MON dynstat_vvel_min             =  -2.6640751857532E+01
(PID.TID 0000.0001) %MON dynstat_vvel_mean            =   1.1767801879505E+01
(PID.TID 0000.0001) %MON dynstat_vvel_sd              =   1.8925337749668E+01
(PID.TID 0000.0001) %MON dynstat_vvel_del2            =   1.4484824103844E-02
(PID.TID 0000.0001) %MON dynstat_wvel_max             =   6.1243529367355E-15
(PID.TID 0000.0001) %MON dynstat_wvel_min             =  -6.1243529367429E-15
(PID.TID 0000.0001) %MON dynstat_wvel_mean            =   2.1545860175660E-18
(PID.TID 0000.0001) %MON dynstat_wvel_sd              =   1.4391378503775E-15
(PID.TID 0000.0001) %MON dynstat_wvel_del2            =   7.4668782645351E-17
(PID.TID 0000.0001) %MON dynstat_theta_max            =   1.9132146855743E+00
(PID.TID 0000.0001) %MON dynstat_theta_min            =   9.9998815405817E-01
(PID.TID 0000.0001) %MON dynstat_theta_mean           =   1.0066888037826E+00
(PID.TID 0000.0001) %MON dynstat_theta_sd             =   6.0003613950795E-02
(PID.TID 0000.0001) %MON dynstat_theta_del2           =   1.4346198076541E-04
(PID.TID 0000.0001) %MON dynstat_salt_max             =   1.9785573343243E+00
(PID.TID 0000.0001) %MON dynstat_salt_min             =   9.9873408343178E-01
(PID.TID 0000.0001) %MON dynstat_salt_mean            =   1.0066901484881E+00
(PID.TID 0000.0001) %MON dynstat_salt_sd              =   6.1147466892621E-02
(PID.TID 0000.0001) %MON dynstat_salt_del2            =   1.2454950733581E-04
(PID.TID 0000.0001) %MON advcfl_uvel_max              =   7.6804612966358E-01
(PID.TID 0000.0001) %MON advcfl_vvel_max              =   7.6804612966358E-01
(PID.TID 0000.0001) %MON advcfl_wvel_max              =   3.3071505858412E-16
(PID.TID 0000.0001) %MON advcfl_W_hf_max              =   0.0000000000000E+00
(PID.TID 0000.0001) %MON pe_b_mean                    =   0.0000000000000E+00
(PID.TID 0000.0001) %MON ke_max                       =   7.4475958662786E+02
(PID.TID 0000.0001) %MON ke_mean                      =   4.9660795630338E+02
(PID.TID 0000.0001) %MON ke_vol                       =   5.0990436378172E+19
(PID.TID 0000.0001) // =======================================================
(PID.TID 0000.0001) // End MONITOR dynamic field statistics
(PID.TID 0000.0001) // =======================================================
 Compute Stats, Diag. #     26  THETA     vol(   0 ): 5.099E+19  Parms: SMR     MR      
 Compute Stats, Diag. #     27  SALT      vol(   0 ): 5.099E+19  Parms: SMR     MR      
 Compute Stats, Diag. #    140  SM_v_SLT  vol(   0 ): 5.099E+19  Parms: SM P    MR      
(PID.TID 0000.0001) // =======================================================
(PID.TID 0000.0001) // Begin MONITOR dynamic field statistics
(PID.TID 0000.0001) // =======================================================
(PID.TID 0000.0001) %MON time_tsnumber                =                    64
(PID.TID 0000.0001) %MON time_secondsf                =   1.7280000000000E+05
(PID.TID 0000.0001) %MON dynstat_eta_max              =   0.0000000000000E+00
(PID.TID 0000.0001) %MON dynstat_eta_min              =   0.0000000000000E+00
(PID.TID 0000.0001) %MON dynstat_eta_mean             =   0.0000000000000E+00
(PID.TID 0000.0001) %MON dynstat_eta_sd               =   0.0000000000000E+00
(PID.TID 0000.0001) %MON dynstat_eta_del2             =   0.0000000000000E+00
(PID.TID 0000.0001) %MON dynstat_uvel_max             =   3.8588909729197E+01
(PID.TID 0000.0001) %MON dynstat_uvel_min             =  -2.6640751857532E+01
(PID.TID 0000.0001) %MON dynstat_uvel_mean            =   1.1767801879505E+01
(PID.TID 0000.0001) %MON dynstat_uvel_sd              =   1.8925337749668E+01
(PID.TID 0000.0001) %MON dynstat_uvel_del2            =   1.4484824103844E-02
(PID.TID 0000.0001) %MON dynstat_vvel_max             =   3.8588909729197E+01
(PID.TID 0000.0001) %MON dynstat_vvel_min             =  -2.6640751857532E+01
(PID.TID 0000.0001) %MON dynstat_vvel_mean            =   1.1767801879505E+01
(PID.TID 0000.0001) %MON dynstat_vvel_sd              =   1.8925337749668E+01
(PID.TID 0000.0001) %MON dynstat_vvel_del2            =   1.4484824103844E-02
(PID.TID 0000.0001) %MON dynstat_wvel_max             =   6.1243529367355E-15
(PID.TID 0000.0001) %MON dynstat_wvel_min             =  -6.1243529367429E-15
(PID.TID 0000.0001) %MON dynstat_wvel_mean            =   2.1545860175660E-18
(PID.TID 0000.0001) %MON dynstat_wvel_sd              =   1.4391378503775E-15
(PID.TID 0000.0001) %MON dynstat_wvel_del2            =   7.4668782645351E-17
(PID.TID 0000.0001) %MON dynstat_theta_max            =   1.9099258012497E+00
(PID.TID 0000.0001) %MON dynstat_theta_min            =   9.9998867702108E-01
(PID.TID 0000.0001) %MON dynstat_theta_mean           =   1.0066888037826E+00
(PID.TID 0000.0001) %MON dynstat_theta_sd             =   5.9790749678693E-02
(PID.TID 0000.0001) %MON dynstat_theta_del2           =   1.4407847010503E-04
(PID.TID 0000.0001) %MON dynstat_salt_max             =   1.9805944806301E+00
(PID.TID 0000.0001) %MON dynstat_salt_min             =   9.9905172132322E-01
(PID.TID 0000.0001) %MON dynstat_salt_mean            =   1.0066901484881E+00
(PID.TID 0000.0001) %MON dynstat_salt_sd              =   6.1107627353052E-02
(PID.TID 0000.0001) %MON dynstat_salt_del2            =   1.3408764811055E-04
(PID.TID 0000.0001) %MON advcfl_uvel_max              =   7.6804612966358E-01
(PID.TID 0000.0001) %MON advcfl_vvel_max              =   7.6804612966358E-01
(PID.TID 0000.0001) %MON advcfl_wvel_max              =   3.3071505858412E-16
(PID.TID 0000.0001) %MON advcfl_W_hf_max              =   0.0000000000000E+00
(PID.TID 0000.0001) %MON pe_b_mean                    =   0.0000000000000E+00
(PID.TID 0000.0001) %MON ke_max                       =   7.4475958662786E+02
(PID.TID 0000.0001) %MON ke_mean                      =   4.9660795630338E+02
(PID.TID 0000.0001) %MON ke_vol                       =   5.0990436378172E+19
(PID.TID 0000.0001) // =======================================================
(PID.TID 0000.0001) // End MONITOR dynamic field statistics
(PID.TID 0000.0001) // =======================================================
 Computing Diagnostic #     26  THETA        Counter:       1   Parms: SMR     MR      
 Computing Diagnostic #     27  SALT         Counter:       1   Parms: SMR     MR      
 Compute Stats, Diag. #     26  THETA     vol(   0 ): 5.099E+19  Parms: SMR     MR      
 Compute Stats, Diag. #     27  SALT      vol(   0 ): 5.099E+19  Parms: SMR     MR      
 Compute Stats, Diag. #    140  SM_v_SLT  vol(   0 ): 5.099E+19  Parms: SM P    MR      
(PID.TID 0000.0001) // =======================================================
(PID.TID 0000.0001) // Begin MONITOR dynamic field statistics
(PID.TID 0000.0001) // =======================================================
(PID.TID 0000.0001) %MON time_tsnumber                =                    72
(PID.TID 0000.0001) %MON time_secondsf                =   1.9440000000000E+05
(PID.TID 0000.0001) %MON dynstat_eta_max              =   0.0000000000000E+00
(PID.TID 0000.0001) %MON dynstat_eta_min              =   0.0000000000000E+00
(PID.TID 0000.0001) %MON dynstat_eta_mean             =   0.0000000000000E+00
(PID.TID 0000.0001) %MON dynstat_eta_sd               =   0.0000000000000E+00
(PID.TID 0000.0001) %MON dynstat_eta_del2             =   0.0000000000000E+00
(PID.TID 0000.0001) %MON dynstat_uvel_max             =   3.8588909729197E+01
(PID.TID 0000.0001) %MON dynstat_uvel_min             =  -2.6640751857532E+01
(PID.TID 0000.0001) %MON dynstat_uvel_mean            =   1.1767801879505E+01
(PID.TID 0000.0001) %MON dynstat_uvel_sd              =   1.8925337749668E+01
(PID.TID 0000.0001) %MON dynstat_uvel_del2            =   1.4484824103844E-02
(PID.TID 0000.0001) %MON dynstat_vvel_max             =   3.8588909729197E+01
(PID.TID 0000.0001) %MON dynstat_vvel_min             =  -2.6640751857532E+01
(PID.TID 0000.0001) %MON dynstat_vvel_mean            =   1.1767801879505E+01
(PID.TID 0000.0001) %MON dynstat_vvel_sd              =   1.8925337749668E+01
(PID.TID 0000.0001) %MON dynstat_vvel_del2            =   1.4484824103844E-02
(PID.TID 0000.0001) %MON dynstat_wvel_max             =   6.1243529367355E-15
(PID.TID 0000.0001) %MON dynstat_wvel_min             =  -6.1243529367429E-15
(PID.TID 0000.0001) %MON dynstat_wvel_mean            =   2.1545860175660E-18
(PID.TID 0000.0001) %MON dynstat_wvel_sd              =   1.4391378503775E-15
(PID.TID 0000.0001) %MON dynstat_wvel_del2            =   7.4668782645351E-17
(PID.TID 0000.0001) %MON dynstat_theta_max            =   1.9034179021520E+00
(PID.TID 0000.0001) %MON dynstat_theta_min            =   9.9997270398249E-01
(PID.TID 0000.0001) %MON dynstat_theta_mean           =   1.0066888037826E+00
(PID.TID 0000.0001) %MON dynstat_theta_sd             =   5.9578912205606E-02
(PID.TID 0000.0001) %MON dynstat_theta_del2           =   1.4434567464709E-04
(PID.TID 0000.0001) %MON dynstat_salt_max             =   1.9621917145333E+00
(PID.TID 0000.0001) %MON dynstat_salt_min             =   9.9865891516087E-01
(PID.TID 0000.0001) %MON dynstat_salt_mean            =   1.0066901484881E+00
(PID.TID 0000.0001) %MON dynstat_salt_sd              =   6.1058497935390E-02
(PID.TID 0000.0001) %MON dynstat_salt_del2            =   1.4104422440130E-04
(PID.TID 0000.0001) %MON advcfl_uvel_max              =   7.6804612966358E-01
(PID.TID 0000.0001) %MON advcfl_vvel_max              =   7.6804612966358E-01
(PID.TID 0000.0001) %MON advcfl_wvel_max              =   3.3071505858412E-16
(PID.TID 0000.0001) %MON advcfl_W_hf_max              =   0.0000000000000E+00
(PID.TID 0000.0001) %MON pe_b_mean                    =   0.0000000000000E+00
(PID.TID 0000.0001) %MON ke_max                       =   7.4475958662786E+02
(PID.TID 0000.0001) %MON ke_mean                      =   4.9660795630338E+02
(PID.TID 0000.0001) %MON ke_vol                       =   5.0990436378172E+19
(PID.TID 0000.0001) // =======================================================
(PID.TID 0000.0001) // End MONITOR dynamic field statistics
(PID.TID 0000.0001) // =======================================================
 Compute Stats, Diag. #     26  THETA     vol(   0 ): 5.099E+19  Parms: SMR     MR      
 Compute Stats, Diag. #     27  SALT      vol(   0 ): 5.099E+19  Parms: SMR     MR      
 Compute Stats, Diag. #    140  SM_v_SLT  vol(   0 ): 5.099E+19  Parms: SM P    MR      
(PID.TID 0000.0001) // =======================================================
(PID.TID 0000.0001) // Begin MONITOR dynamic field statistics
(PID.TID 0000.0001) // =======================================================
(PID.TID 0000.0001) %MON time_tsnumber                =                    80
(PID.TID 0000.0001) %MON time_secondsf                =   2.1600000000000E+05
(PID.TID 0000.0001) %MON dynstat_eta_max              =   0.0000000000000E+00
(PID.TID 0000.0001) %MON dynstat_eta_min              =   0.0000000000000E+00
(PID.TID 0000.0001) %MON dynstat_eta_mean             =   0.0000000000000E+00
(PID.TID 0000.0001) %MON dynstat_eta_sd               =   0.0000000000000E+00
(PID.TID 0000.0001) %MON dynstat_eta_del2             =   0.0000000000000E+00
(PID.TID 0000.0001) %MON dynstat_uvel_max             =   3.8588909729197E+01
(PID.TID 0000.0001) %MON dynstat_uvel_min             =  -2.6640751857532E+01
(PID.TID 0000.0001) %MON dynstat_uvel_mean            =   1.1767801879505E+01
(PID.TID 0000.0001) %MON dynstat_uvel_sd              =   1.8925337749668E+01
(PID.TID 0000.0001) %MON dynstat_uvel_del2            =   1.4484824103844E-02
(PID.TID 0000.0001) %MON dynstat_vvel_max             =   3.8588909729197E+01
(PID.TID 0000.0001) %MON dynstat_vvel_min             =  -2.6640751857532E+01
(PID.TID 0000.0001) %MON dynstat_vvel_mean            =   1.1767801879505E+01
(PID.TID 0000.0001) %MON dynstat_vvel_sd              =   1.8925337749668E+01
(PID.TID 0000.0001) %MON dynstat_vvel_del2            =   1.4484824103844E-02
(PID.TID 0000.0001) %MON dynstat_wvel_max             =   6.1243529367355E-15
(PID.TID 0000.0001) %MON dynstat_wvel_min             =  -6.1243529367429E-15
(PID.TID 0000.0001) %MON dynstat_wvel_mean            =   2.1545860175660E-18
(PID.TID 0000.0001) %MON dynstat_wvel_sd              =   1.4391378503775E-15
(PID.TID 0000.0001) %MON dynstat_wvel_del2            =   7.4668782645351E-17
(PID.TID 0000.0001) %MON dynstat_theta_max            =   1.8972234137024E+00
(PID.TID 0000.0001) %MON dynstat_theta_min            =   9.9995212967382E-01
(PID.TID 0000.0001) %MON dynstat_theta_mean           =   1.0066888037826E+00
(PID.TID 0000.0001) %MON dynstat_theta_sd             =   5.9360976039768E-02
(PID.TID 0000.0001) %MON dynstat_theta_del2           =   1.4537904374457E-04
(PID.TID 0000.0001) %MON dynstat_salt_max             =   1.9788756130282E+00
(PID.TID 0000.0001) %MON dynstat_salt_min             =   9.9879077958772E-01
(PID.TID 0000.0001) %MON dynstat_salt_mean            =   1.0066901484881E+00
(PID.TID 0000.0001) %MON dynstat_salt_sd              =   6.1023454982854E-02
(PID.TID 0000.0001) %MON dynstat_salt_del2            =   1.4649544484133E-04
(PID.TID 0000.0001) %MON advcfl_uvel_max              =   7.6804612966358E-01
(PID.TID 0000.0001) %MON advcfl_vvel_max              =   7.6804612966358E-01
(PID.TID 0000.0001) %MON advcfl_wvel_max              =   3.3071505858412E-16
(PID.TID 0000.0001) %MON advcfl_W_hf_max              =   0.0000000000000E+00
(PID.TID 0000.0001) %MON pe_b_mean                    =   0.0000000000000E+00
(PID.TID 0000.0001) %MON ke_max                       =   7.4475958662786E+02
(PID.TID 0000.0001) %MON ke_mean                      =   4.9660795630338E+02
(PID.TID 0000.0001) %MON ke_vol                       =   5.0990436378172E+19
(PID.TID 0000.0001) // =======================================================
(PID.TID 0000.0001) // End MONITOR dynamic field statistics
(PID.TID 0000.0001) // =======================================================
 Compute Stats, Diag. #     26  THETA     vol(   0 ): 5.099E+19  Parms: SMR     MR      
 Compute Stats, Diag. #     27  SALT      vol(   0 ): 5.099E+19  Parms: SMR     MR      
 Compute Stats, Diag. #    140  SM_v_SLT  vol(   0 ): 5.099E+19  Parms: SM P    MR      
(PID.TID 0000.0001) // =======================================================
(PID.TID 0000.0001) // Begin MONITOR dynamic field statistics
(PID.TID 0000.0001) // =======================================================
(PID.TID 0000.0001) %MON time_tsnumber                =                    88
(PID.TID 0000.0001) %MON time_secondsf                =   2.3760000000000E+05
(PID.TID 0000.0001) %MON dynstat_eta_max              =   0.0000000000000E+00
(PID.TID 0000.0001) %MON dynstat_eta_min              =   0.0000000000000E+00
(PID.TID 0000.0001) %MON dynstat_eta_mean             =   0.0000000000000E+00
(PID.TID 0000.0001) %MON dynstat_eta_sd               =   0.0000000000000E+00
(PID.TID 0000.0001) %MON dynstat_eta_del2             =   0.0000000000000E+00
(PID.TID 0000.0001) %MON dynstat_uvel_max             =   3.8588909729197E+01
(PID.TID 0000.0001) %MON dynstat_uvel_min             =  -2.6640751857532E+01
(PID.TID 0000.0001) %MON dynstat_uvel_mean            =   1.1767801879505E+01
(PID.TID 0000.0001) %MON dynstat_uvel_sd              =   1.8925337749668E+01
(PID.TID 0000.0001) %MON dynstat_uvel_del2            =   1.4484824103844E-02
(PID.TID 0000.0001) %MON dynstat_vvel_max             =   3.8588909729197E+01
(PID.TID 0000.0001) %MON dynstat_vvel_min             =  -2.6640751857532E+01
(PID.TID 0000.0001) %MON dynstat_vvel_mean            =   1.1767801879505E+01
(PID.TID 0000.0001) %MON dynstat_vvel_sd              =   1.8925337749668E+01
(PID.TID 0000.0001) %MON dynstat_vvel_del2            =   1.4484824103844E-02
(PID.TID 0000.0001) %MON dynstat_wvel_max             =   6.1243529367355E-15
(PID.TID 0000.0001) %MON dynstat_wvel_min             =  -6.1243529367429E-15
(PID.TID 0000.0001) %MON dynstat_wvel_mean            =   2.1545860175660E-18
(PID.TID 0000.0001) %MON dynstat_wvel_sd              =   1.4391378503775E-15
(PID.TID 0000.0001) %MON dynstat_wvel_del2            =   7.4668782645351E-17
(PID.TID 0000.0001) %MON dynstat_theta_max            =   1.8907961174233E+00
(PID.TID 0000.0001) %MON dynstat_theta_min            =   9.9992483339725E-01
(PID.TID 0000.0001) %MON dynstat_theta_mean           =   1.0066888037826E+00
(PID.TID 0000.0001) %MON dynstat_theta_sd             =   5.9140637959400E-02
(PID.TID 0000.0001) %MON dynstat_theta_del2           =   1.4609966360718E-04
(PID.TID 0000.0001) %MON dynstat_salt_max             =   1.9725808885483E+00
(PID.TID 0000.0001) %MON dynstat_salt_min             =   9.9891176288652E-01
(PID.TID 0000.0001) %MON dynstat_salt_mean            =   1.0066901484881E+00
(PID.TID 0000.0001) %MON dynstat_salt_sd              =   6.1003392590107E-02
(PID.TID 0000.0001) %MON dynstat_salt_del2            =   1.4994994246371E-04
(PID.TID 0000.0001) %MON advcfl_uvel_max              =   7.6804612966358E-01
(PID.TID 0000.0001) %MON advcfl_vvel_max              =   7.6804612966358E-01
(PID.TID 0000.0001) %MON advcfl_wvel_max              =   3.3071505858412E-16
(PID.TID 0000.0001) %MON advcfl_W_hf_max              =   0.0000000000000E+00
(PID.TID 0000.0001) %MON pe_b_mean                    =   0.0000000000000E+00
(PID.TID 0000.0001) %MON ke_max                       =   7.4475958662786E+02
(PID.TID 0000.0001) %MON ke_mean                      =   4.9660795630338E+02
(PID.TID 0000.0001) %MON ke_vol                       =   5.0990436378172E+19
(PID.TID 0000.0001) // =======================================================
(PID.TID 0000.0001) // End MONITOR dynamic field statistics
(PID.TID 0000.0001) // =======================================================
 Compute Stats, Diag. #     26  THETA     vol(   0 ): 5.099E+19  Parms: SMR     MR      
 Compute Stats, Diag. #     27  SALT      vol(   0 ): 5.099E+19  Parms: SMR     MR      
 Compute Stats, Diag. #    140  SM_v_SLT  vol(   0 ): 5.099E+19  Parms: SM P    MR      
(PID.TID 0000.0001) // =======================================================
(PID.TID 0000.0001) // Begin MONITOR dynamic field statistics
(PID.TID 0000.0001) // =======================================================
(PID.TID 0000.0001) %MON time_tsnumber                =                    96
(PID.TID 0000.0001) %MON time_secondsf                =   2.5920000000000E+05
(PID.TID 0000.0001) %MON dynstat_eta_max              =   0.0000000000000E+00
(PID.TID 0000.0001) %MON dynstat_eta_min              =   0.0000000000000E+00
(PID.TID 0000.0001) %MON dynstat_eta_mean             =   0.0000000000000E+00
(PID.TID 0000.0001) %MON dynstat_eta_sd               =   0.0000000000000E+00
(PID.TID 0000.0001) %MON dynstat_eta_del2             =   0.0000000000000E+00
(PID.TID 0000.0001) %MON dynstat_uvel_max             =   3.8588909729197E+01
(PID.TID 0000.0001) %MON dynstat_uvel_min             =  -2.6640751857532E+01
(PID.TID 0000.0001) %MON dynstat_uvel_mean            =   1.1767801879505E+01
(PID.TID 0000.0001) %MON dynstat_uvel_sd              =   1.8925337749668E+01
(PID.TID 0000.0001) %MON dynstat_uvel_del2            =   1.4484824103844E-02
(PID.TID 0000.0001) %MON dynstat_vvel_max             =   3.8588909729197E+01
(PID.TID 0000.0001) %MON dynstat_vvel_min             =  -2.6640751857532E+01
(PID.TID 0000.0001) %MON dynstat_vvel_mean            =   1.1767801879505E+01
(PID.TID 0000.0001) %MON dynstat_vvel_sd              =   1.8925337749668E+01
(PID.TID 0000.0001) %MON dynstat_vvel_del2            =   1.4484824103844E-02
(PID.TID 0000.0001) %MON dynstat_wvel_max             =   6.1243529367355E-15
(PID.TID 0000.0001) %MON dynstat_wvel_min             =  -6.1243529367429E-15
(PID.TID 0000.0001) %MON dynstat_wvel_mean            =   2.1545860175660E-18
(PID.TID 0000.0001) %MON dynstat_wvel_sd              =   1.4391378503775E-15
(PID.TID 0000.0001) %MON dynstat_wvel_del2            =   7.4668782645351E-17
(PID.TID 0000.0001) %MON dynstat_theta_max            =   1.8798366419824E+00
(PID.TID 0000.0001) %MON dynstat_theta_min            =   9.9988465874282E-01
(PID.TID 0000.0001) %MON dynstat_theta_mean           =   1.0066888037826E+00
(PID.TID 0000.0001) %MON dynstat_theta_sd             =   5.8922269765492E-02
(PID.TID 0000.0001) %MON dynstat_theta_del2           =   1.4462234284395E-04
(PID.TID 0000.0001) %MON dynstat_salt_max             =   1.9665382964904E+00
(PID.TID 0000.0001) %MON dynstat_salt_min             =   9.9890730846993E-01
(PID.TID 0000.0001) %MON dynstat_salt_mean            =   1.0066901484881E+00
(PID.TID 0000.0001) %MON dynstat_salt_sd              =   6.0992053213172E-02
(PID.TID 0000.0001) %MON dynstat_salt_del2            =   1.5070460144692E-04
(PID.TID 0000.0001) %MON advcfl_uvel_max              =   7.6804612966358E-01
(PID.TID 0000.0001) %MON advcfl_vvel_max              =   7.6804612966358E-01
(PID.TID 0000.0001) %MON advcfl_wvel_max              =   3.3071505858412E-16
(PID.TID 0000.0001) %MON advcfl_W_hf_max              =   0.0000000000000E+00
(PID.TID 0000.0001) %MON pe_b_mean                    =   0.0000000000000E+00
(PID.TID 0000.0001) %MON ke_max                       =   7.4475958662786E+02
(PID.TID 0000.0001) %MON ke_mean                      =   4.9660795630338E+02
(PID.TID 0000.0001) %MON ke_vol                       =   5.0990436378172E+19
(PID.TID 0000.0001) // =======================================================
(PID.TID 0000.0001) // End MONITOR dynamic field statistics
(PID.TID 0000.0001) // =======================================================
 Computing Diagnostic #     26  THETA        Counter:       1   Parms: SMR     MR      
 Computing Diagnostic #     27  SALT         Counter:       1   Parms: SMR     MR      
 Compute Stats, Diag. #     26  THETA     vol(   0 ): 5.099E+19  Parms: SMR     MR      
 Compute Stats, Diag. #     27  SALT      vol(   0 ): 5.099E+19  Parms: SMR     MR      
 Compute Stats, Diag. #    140  SM_v_SLT  vol(   0 ): 5.099E+19  Parms: SM P    MR      
(PID.TID 0000.0001) // =======================================================
(PID.TID 0000.0001) // Begin MONITOR dynamic field statistics
(PID.TID 0000.0001) // =======================================================
(PID.TID 0000.0001) %MON time_tsnumber                =                   104
(PID.TID 0000.0001) %MON time_secondsf                =   2.8080000000000E+05
(PID.TID 0000.0001) %MON dynstat_eta_max              =   0.0000000000000E+00
(PID.TID 0000.0001) %MON dynstat_eta_min              =   0.0000000000000E+00
(PID.TID 0000.0001) %MON dynstat_eta_mean             =   0.0000000000000E+00
(PID.TID 0000.0001) %MON dynstat_eta_sd               =   0.0000000000000E+00
(PID.TID 0000.0001) %MON dynstat_eta_del2             =   0.0000000000000E+00
(PID.TID 0000.0001) %MON dynstat_uvel_max             =   3.8588909729197E+01
(PID.TID 0000.0001) %MON dynstat_uvel_min             =  -2.6640751857532E+01
(PID.TID 0000.0001) %MON dynstat_uvel_mean            =   1.1767801879505E+01
(PID.TID 0000.0001) %MON dynstat_uvel_sd              =   1.8925337749668E+01
(PID.TID 0000.0001) %MON dynstat_uvel_del2            =   1.4484824103844E-02
(PID.TID 0000.0001) %MON dynstat_vvel_max             =   3.8588909729197E+01
(PID.TID 0000.0001) %MON dynstat_vvel_min             =  -2.6640751857532E+01
(PID.TID 0000.0001) %MON dynstat_vvel_mean            =   1.1767801879505E+01
(PID.TID 0000.0001) %MON dynstat_vvel_sd              =   1.8925337749668E+01
(PID.TID 0000.0001) %MON dynstat_vvel_del2            =   1.4484824103844E-02
(PID.TID 0000.0001) %MON dynstat_wvel_max             =   6.1243529367355E-15
(PID.TID 0000.0001) %MON dynstat_wvel_min             =  -6.1243529367429E-15
(PID.TID 0000.0001) %MON dynstat_wvel_mean            =   2.1545860175660E-18
(PID.TID 0000.0001) %MON dynstat_wvel_sd              =   1.4391378503775E-15
(PID.TID 0000.0001) %MON dynstat_wvel_del2            =   7.4668782645351E-17
(PID.TID 0000.0001) %MON dynstat_theta_max            =   1.8748245894098E+00
(PID.TID 0000.0001) %MON dynstat_theta_min            =   9.9988855865113E-01
(PID.TID 0000.0001) %MON dynstat_theta_mean           =   1.0066888037826E+00
(PID.TID 0000.0001) %MON dynstat_theta_sd             =   5.8698061534806E-02
(PID.TID 0000.0001) %MON dynstat_theta_del2           =   1.4376554774797E-04
(PID.TID 0000.0001) %MON dynstat_salt_max             =   1.9762234097267E+00
(PID.TID 0000.0001) %MON dynstat_salt_min             =   9.9869137149455E-01
(PID.TID 0000.0001) %MON dynstat_salt_mean            =   1.0066901484881E+00
(PID.TID 0000.0001) %MON dynstat_salt_sd              =   6.0993912680434E-02
(PID.TID 0000.0001) %MON dynstat_salt_del2            =   1.4935142474856E-04
(PID.TID 0000.0001) %MON advcfl_uvel_max              =   7.6804612966358E-01
(PID.TID 0000.0001) %MON advcfl_vvel_max              =   7.6804612966358E-01
(PID.TID 0000.0001) %MON advcfl_wvel_max              =   3.3071505858412E-16
(PID.TID 0000.0001) %MON advcfl_W_hf_max              =   0.0000000000000E+00
(PID.TID 0000.0001) %MON pe_b_mean                    =   0.0000000000000E+00
(PID.TID 0000.0001) %MON ke_max                       =   7.4475958662786E+02
(PID.TID 0000.0001) %MON ke_mean                      =   4.9660795630338E+02
(PID.TID 0000.0001) %MON ke_vol                       =   5.0990436378172E+19
(PID.TID 0000.0001) // =======================================================
(PID.TID 0000.0001) // End MONITOR dynamic field statistics
(PID.TID 0000.0001) // =======================================================
 Compute Stats, Diag. #     26  THETA     vol(   0 ): 5.099E+19  Parms: SMR     MR      
 Compute Stats, Diag. #     27  SALT      vol(   0 ): 5.099E+19  Parms: SMR     MR      
 Compute Stats, Diag. #    140  SM_v_SLT  vol(   0 ): 5.099E+19  Parms: SM P    MR      
(PID.TID 0000.0001) // =======================================================
(PID.TID 0000.0001) // Begin MONITOR dynamic field statistics
(PID.TID 0000.0001) // =======================================================
(PID.TID 0000.0001) %MON time_tsnumber                =                   112
(PID.TID 0000.0001) %MON time_secondsf                =   3.0240000000000E+05
(PID.TID 0000.0001) %MON dynstat_eta_max              =   0.0000000000000E+00
(PID.TID 0000.0001) %MON dynstat_eta_min              =   0.0000000000000E+00
(PID.TID 0000.0001) %MON dynstat_eta_mean             =   0.0000000000000E+00
(PID.TID 0000.0001) %MON dynstat_eta_sd               =   0.0000000000000E+00
(PID.TID 0000.0001) %MON dynstat_eta_del2             =   0.0000000000000E+00
(PID.TID 0000.0001) %MON dynstat_uvel_max             =   3.8588909729197E+01
(PID.TID 0000.0001) %MON dynstat_uvel_min             =  -2.6640751857532E+01
(PID.TID 0000.0001) %MON dynstat_uvel_mean            =   1.1767801879505E+01
(PID.TID 0000.0001) %MON dynstat_uvel_sd              =   1.8925337749668E+01
(PID.TID 0000.0001) %MON dynstat_uvel_del2            =   1.4484824103844E-02
(PID.TID 0000.0001) %MON dynstat_vvel_max             =   3.8588909729197E+01
(PID.TID 0000.0001) %MON dynstat_vvel_min             =  -2.6640751857532E+01
(PID.TID 0000.0001) %MON dynstat_vvel_mean            =   1.1767801879505E+01
(PID.TID 0000.0001) %MON dynstat_vvel_sd              =   1.8925337749668E+01
(PID.TID 0000.0001) %MON dynstat_vvel_del2            =   1.4484824103844E-02
(PID.TID 0000.0001) %MON dynstat_wvel_max             =   6.1243529367355E-15
(PID.TID 0000.0001) %MON dynstat_wvel_min             =  -6.1243529367429E-15
(PID.TID 0000.0001) %MON dynstat_wvel_mean            =   2.1545860175660E-18
(PID.TID 0000.0001) %MON dynstat_wvel_sd              =   1.4391378503775E-15
(PID.TID 0000.0001) %MON dynstat_wvel_del2            =   7.4668782645351E-17
(PID.TID 0000.0001) %MON dynstat_theta_max            =   1.8708608922949E+00
(PID.TID 0000.0001) %MON dynstat_theta_min            =   9.9990259361291E-01
(PID.TID 0000.0001) %MON dynstat_theta_mean           =   1.0066888037826E+00
(PID.TID 0000.0001) %MON dynstat_theta_sd             =   5.8491138443392E-02
(PID.TID 0000.0001) %MON dynstat_theta_del2           =   1.4034637443011E-04
(PID.TID 0000.0001) %MON dynstat_salt_max             =   1.9780876440666E+00
(PID.TID 0000.0001) %MON dynstat_salt_min             =   9.9862728978525E-01
(PID.TID 0000.0001) %MON dynstat_salt_mean            =   1.0066901484881E+00
(PID.TID 0000.0001) %MON dynstat_salt_sd              =   6.1020238345912E-02
(PID.TID 0000.0001) %MON dynstat_salt_del2            =   1.4565245013317E-04
(PID.TID 0000.0001) %MON advcfl_uvel_max              =   7.6804612966358E-01
(PID.TID 0000.0001) %MON advcfl_vvel_max              =   7.6804612966358E-01
(PID.TID 0000.0001) %MON advcfl_wvel_max              =   3.3071505858412E-16
(PID.TID 0000.0001) %MON advcfl_W_hf_max              =   0.0000000000000E+00
(PID.TID 0000.0001) %MON pe_b_mean                    =   0.0000000000000E+00
(PID.TID 0000.0001) %MON ke_max                       =   7.4475958662786E+02
(PID.TID 0000.0001) %MON ke_mean                      =   4.9660795630338E+02
(PID.TID 0000.0001) %MON ke_vol                       =   5.0990436378172E+19
(PID.TID 0000.0001) // =======================================================
(PID.TID 0000.0001) // End MONITOR dynamic field statistics
(PID.TID 0000.0001) // =======================================================
 Compute Stats, Diag. #     26  THETA     vol(   0 ): 5.099E+19  Parms: SMR     MR      
 Compute Stats, Diag. #     27  SALT      vol(   0 ): 5.099E+19  Parms: SMR     MR      
 Compute Stats, Diag. #    140  SM_v_SLT  vol(   0 ): 5.099E+19  Parms: SM P    MR      
(PID.TID 0000.0001) // =======================================================
(PID.TID 0000.0001) // Begin MONITOR dynamic field statistics
(PID.TID 0000.0001) // =======================================================
(PID.TID 0000.0001) %MON time_tsnumber                =                   120
(PID.TID 0000.0001) %MON time_secondsf                =   3.2400000000000E+05
(PID.TID 0000.0001) %MON dynstat_eta_max              =   0.0000000000000E+00
(PID.TID 0000.0001) %MON dynstat_eta_min              =   0.0000000000000E+00
(PID.TID 0000.0001) %MON dynstat_eta_mean             =   0.0000000000000E+00
(PID.TID 0000.0001) %MON dynstat_eta_sd               =   0.0000000000000E+00
(PID.TID 0000.0001) %MON dynstat_eta_del2             =   0.0000000000000E+00
(PID.TID 0000.0001) %MON dynstat_uvel_max             =   3.8588909729197E+01
(PID.TID 0000.0001) %MON dynstat_uvel_min             =  -2.6640751857532E+01
(PID.TID 0000.0001) %MON dynstat_uvel_mean            =   1.1767801879505E+01
(PID.TID 0000.0001) %MON dynstat_uvel_sd              =   1.8925337749668E+01
(PID.TID 0000.0001) %MON dynstat_uvel_del2            =   1.4484824103844E-02
(PID.TID 0000.0001) %MON dynstat_vvel_max             =   3.8588909729197E+01
(PID.TID 0000.0001) %MON dynstat_vvel_min             =  -2.6640751857532E+01
(PID.TID 0000.0001) %MON dynstat_vvel_mean            =   1.1767801879505E+01
(PID.TID 0000.0001) %MON dynstat_vvel_sd              =   1.8925337749668E+01
(PID.TID 0000.0001) %MON dynstat_vvel_del2            =   1.4484824103844E-02
(PID.TID 0000.0001) %MON dynstat_wvel_max             =   6.1243529367355E-15
(PID.TID 0000.0001) %MON dynstat_wvel_min             =  -6.1243529367429E-15
(PID.TID 0000.0001) %MON dynstat_wvel_mean            =   2.1545860175660E-18
(PID.TID 0000.0001) %MON dynstat_wvel_sd              =   1.4391378503775E-15
(PID.TID 0000.0001) %MON dynstat_wvel_del2            =   7.4668782645351E-17
(PID.TID 0000.0001) %MON dynstat_theta_max            =   1.8673636589788E+00
(PID.TID 0000.0001) %MON dynstat_theta_min            =   9.9991961518969E-01
(PID.TID 0000.0001) %MON dynstat_theta_mean           =   1.0066888037826E+00
(PID.TID 0000.0001) %MON dynstat_theta_sd             =   5.8299033585897E-02
(PID.TID 0000.0001) %MON dynstat_theta_del2           =   1.3695054928583E-04
(PID.TID 0000.0001) %MON dynstat_salt_max             =   1.9596736139149E+00
(PID.TID 0000.0001) %MON dynstat_salt_min             =   9.9863464261102E-01
(PID.TID 0000.0001) %MON dynstat_salt_mean            =   1.0066901484881E+00
(PID.TID 0000.0001) %MON dynstat_salt_sd              =   6.1057600166345E-02
(PID.TID 0000.0001) %MON dynstat_salt_del2            =   1.3959906797849E-04
(PID.TID 0000.0001) %MON advcfl_uvel_max              =   7.6804612966358E-01
(PID.TID 0000.0001) %MON advcfl_vvel_max              =   7.6804612966358E-01
(PID.TID 0000.0001) %MON advcfl_wvel_max              =   3.3071505858412E-16
(PID.TID 0000.0001) %MON advcfl_W_hf_max              =   0.0000000000000E+00
(PID.TID 0000.0001) %MON pe_b_mean                    =   0.0000000000000E+00
(PID.TID 0000.0001) %MON ke_max                       =   7.4475958662786E+02
(PID.TID 0000.0001) %MON ke_mean                      =   4.9660795630338E+02
(PID.TID 0000.0001) %MON ke_vol                       =   5.0990436378172E+19
(PID.TID 0000.0001) // =======================================================
(PID.TID 0000.0001) // End MONITOR dynamic field statistics
(PID.TID 0000.0001) // =======================================================
 Compute Stats, Diag. #     26  THETA     vol(   0 ): 5.099E+19  Parms: SMR     MR      
 Compute Stats, Diag. #     27  SALT      vol(   0 ): 5.099E+19  Parms: SMR     MR      
 Compute Stats, Diag. #    140  SM_v_SLT  vol(   0 ): 5.099E+19  Parms: SM P    MR      
(PID.TID 0000.0001) // =======================================================
(PID.TID 0000.0001) // Begin MONITOR dynamic field statistics
(PID.TID 0000.0001) // =======================================================
(PID.TID 0000.0001) %MON time_tsnumber                =                   128
(PID.TID 0000.0001) %MON time_secondsf                =   3.4560000000000E+05
(PID.TID 0000.0001) %MON dynstat_eta_max              =   0.0000000000000E+00
(PID.TID 0000.0001) %MON dynstat_eta_min              =   0.0000000000000E+00
(PID.TID 0000.0001) %MON dynstat_eta_mean             =   0.0000000000000E+00
(PID.TID 0000.0001) %MON dynstat_eta_sd               =   0.0000000000000E+00
(PID.TID 0000.0001) %MON dynstat_eta_del2             =   0.0000000000000E+00
(PID.TID 0000.0001) %MON dynstat_uvel_max             =   3.8588909729197E+01
(PID.TID 0000.0001) %MON dynstat_uvel_min             =  -2.6640751857532E+01
(PID.TID 0000.0001) %MON dynstat_uvel_mean            =   1.1767801879505E+01
(PID.TID 0000.0001) %MON dynstat_uvel_sd              =   1.8925337749668E+01
(PID.TID 0000.0001) %MON dynstat_uvel_del2            =   1.4484824103844E-02
(PID.TID 0000.0001) %MON dynstat_vvel_max             =   3.8588909729197E+01
(PID.TID 0000.0001) %MON dynstat_vvel_min             =  -2.6640751857532E+01
(PID.TID 0000.0001) %MON dynstat_vvel_mean            =   1.1767801879505E+01
(PID.TID 0000.0001) %MON dynstat_vvel_sd              =   1.8925337749668E+01
(PID.TID 0000.0001) %MON dynstat_vvel_del2            =   1.4484824103844E-02
(PID.TID 0000.0001) %MON dynstat_wvel_max             =   6.1243529367355E-15
(PID.TID 0000.0001) %MON dynstat_wvel_min             =  -6.1243529367429E-15
(PID.TID 0000.0001) %MON dynstat_wvel_mean            =   2.1545860175660E-18
(PID.TID 0000.0001) %MON dynstat_wvel_sd              =   1.4391378503775E-15
(PID.TID 0000.0001) %MON dynstat_wvel_del2            =   7.4668782645351E-17
(PID.TID 0000.0001) %MON dynstat_theta_max            =   1.8638631192920E+00
(PID.TID 0000.0001) %MON dynstat_theta_min            =   9.9993249723961E-01
(PID.TID 0000.0001) %MON dynstat_theta_mean           =   1.0066888037826E+00
(PID.TID 0000.0001) %MON dynstat_theta_sd             =   5.8120048551201E-02
(PID.TID 0000.0001) %MON dynstat_theta_del2           =   1.3401110010217E-04
(PID.TID 0000.0001) %MON dynstat_salt_max             =   1.9802901672028E+00
(PID.TID 0000.0001) %MON dynstat_salt_min             =   9.9868198941624E-01
(PID.TID 0000.0001) %MON dynstat_salt_mean            =   1.0066901484881E+00
(PID.TID 0000.0001) %MON dynstat_salt_sd              =   6.1103146456529E-02
(PID.TID 0000.0001) %MON dynstat_salt_del2            =   1.3135122803889E-04
(PID.TID 0000.0001) %MON advcfl_uvel_max              =   7.6804612966358E-01
(PID.TID 0000.0001) %MON advcfl_vvel_max              =   7.6804612966358E-01
(PID.TID 0000.0001) %MON advcfl_wvel_max              =   3.3071505858412E-16
(PID.TID 0000.0001) %MON advcfl_W_hf_max              =   0.0000000000000E+00
(PID.TID 0000.0001) %MON pe_b_mean                    =   0.0000000000000E+00
(PID.TID 0000.0001) %MON ke_max                       =   7.4475958662786E+02
(PID.TID 0000.0001) %MON ke_mean                      =   4.9660795630338E+02
(PID.TID 0000.0001) %MON ke_vol                       =   5.0990436378172E+19
(PID.TID 0000.0001) // =======================================================
(PID.TID 0000.0001) // End MONITOR dynamic field statistics
(PID.TID 0000.0001) // =======================================================
 Computing Diagnostic #     26  THETA        Counter:       1   Parms: SMR     MR      
 Computing Diagnostic #     27  SALT         Counter:       1   Parms: SMR     MR      
 Compute Stats, Diag. #     26  THETA     vol(   0 ): 5.099E+19  Parms: SMR     MR      
 Compute Stats, Diag. #     27  SALT      vol(   0 ): 5.099E+19  Parms: SMR     MR      
 Compute Stats, Diag. #    140  SM_v_SLT  vol(   0 ): 5.099E+19  Parms: SM P    MR      
(PID.TID 0000.0001) // =======================================================
(PID.TID 0000.0001) // Begin MONITOR dynamic field statistics
(PID.TID 0000.0001) // =======================================================
(PID.TID 0000.0001) %MON time_tsnumber                =                   136
(PID.TID 0000.0001) %MON time_secondsf                =   3.6720000000000E+05
(PID.TID 0000.0001) %MON dynstat_eta_max              =   0.0000000000000E+00
(PID.TID 0000.0001) %MON dynstat_eta_min              =   0.0000000000000E+00
(PID.TID 0000.0001) %MON dynstat_eta_mean             =   0.0000000000000E+00
(PID.TID 0000.0001) %MON dynstat_eta_sd               =   0.0000000000000E+00
(PID.TID 0000.0001) %MON dynstat_eta_del2             =   0.0000000000000E+00
(PID.TID 0000.0001) %MON dynstat_uvel_max             =   3.8588909729197E+01
(PID.TID 0000.0001) %MON dynstat_uvel_min             =  -2.6640751857532E+01
(PID.TID 0000.0001) %MON dynstat_uvel_mean            =   1.1767801879505E+01
(PID.TID 0000.0001) %MON dynstat_uvel_sd              =   1.8925337749668E+01
(PID.TID 0000.0001) %MON dynstat_uvel_del2            =   1.4484824103844E-02
(PID.TID 0000.0001) %MON dynstat_vvel_max             =   3.8588909729197E+01
(PID.TID 0000.0001) %MON dynstat_vvel_min             =  -2.6640751857532E+01
(PID.TID 0000.0001) %MON dynstat_vvel_mean            =   1.1767801879505E+01
(PID.TID 0000.0001) %MON dynstat_vvel_sd              =   1.8925337749668E+01
(PID.TID 0000.0001) %MON dynstat_vvel_del2            =   1.4484824103844E-02
(PID.TID 0000.0001) %MON dynstat_wvel_max             =   6.1243529367355E-15
(PID.TID 0000.0001) %MON dynstat_wvel_min             =  -6.1243529367429E-15
(PID.TID 0000.0001) %MON dynstat_wvel_mean            =   2.1545860175660E-18
(PID.TID 0000.0001) %MON dynstat_wvel_sd              =   1.4391378503775E-15
(PID.TID 0000.0001) %MON dynstat_wvel_del2            =   7.4668782645351E-17
(PID.TID 0000.0001) %MON dynstat_theta_max            =   1.8594204859927E+00
(PID.TID 0000.0001) %MON dynstat_theta_min            =   9.9994014788871E-01
(PID.TID 0000.0001) %MON dynstat_theta_mean           =   1.0066888037826E+00
(PID.TID 0000.0001) %MON dynstat_theta_sd             =   5.7957373620845E-02
(PID.TID 0000.0001) %MON dynstat_theta_del2           =   1.3092452771297E-04
(PID.TID 0000.0001) %MON dynstat_salt_max             =   1.9789041846877E+00
(PID.TID 0000.0001) %MON dynstat_salt_min             =   9.9843865116163E-01
(PID.TID 0000.0001) %MON dynstat_salt_mean            =   1.0066901484881E+00
(PID.TID 0000.0001) %MON dynstat_salt_sd              =   6.1142520403665E-02
(PID.TID 0000.0001) %MON dynstat_salt_del2            =   1.2455181131130E-04
(PID.TID 0000.0001) %MON advcfl_uvel_max              =   7.6804612966358E-01
(PID.TID 0000.0001) %MON advcfl_vvel_max              =   7.6804612966358E-01
(PID.TID 0000.0001) %MON advcfl_wvel_max              =   3.3071505858412E-16
(PID.TID 0000.0001) %MON advcfl_W_hf_max              =   0.0000000000000E+00
(PID.TID 0000.0001) %MON pe_b_mean                    =   0.0000000000000E+00
(PID.TID 0000.0001) %MON ke_max                       =   7.4475958662786E+02
(PID.TID 0000.0001) %MON ke_mean                      =   4.9660795630338E+02
(PID.TID 0000.0001) %MON ke_vol                       =   5.0990436378172E+19
(PID.TID 0000.0001) // =======================================================
(PID.TID 0000.0001) // End MONITOR dynamic field statistics
(PID.TID 0000.0001) // =======================================================
 Compute Stats, Diag. #     26  THETA     vol(   0 ): 5.099E+19  Parms: SMR     MR      
 Compute Stats, Diag. #     27  SALT      vol(   0 ): 5.099E+19  Parms: SMR     MR      
 Compute Stats, Diag. #    140  SM_v_SLT  vol(   0 ): 5.099E+19  Parms: SM P    MR      
(PID.TID 0000.0001) // =======================================================
(PID.TID 0000.0001) // Begin MONITOR dynamic field statistics
(PID.TID 0000.0001) // =======================================================
(PID.TID 0000.0001) %MON time_tsnumber                =                   144
(PID.TID 0000.0001) %MON time_secondsf                =   3.8880000000000E+05
(PID.TID 0000.0001) %MON dynstat_eta_max              =   0.0000000000000E+00
(PID.TID 0000.0001) %MON dynstat_eta_min              =   0.0000000000000E+00
(PID.TID 0000.0001) %MON dynstat_eta_mean             =   0.0000000000000E+00
(PID.TID 0000.0001) %MON dynstat_eta_sd               =   0.0000000000000E+00
(PID.TID 0000.0001) %MON dynstat_eta_del2             =   0.0000000000000E+00
(PID.TID 0000.0001) %MON dynstat_uvel_max             =   3.8588909729197E+01
(PID.TID 0000.0001) %MON dynstat_uvel_min             =  -2.6640751857532E+01
(PID.TID 0000.0001) %MON dynstat_uvel_mean            =   1.1767801879505E+01
(PID.TID 0000.0001) %MON dynstat_uvel_sd              =   1.8925337749668E+01
(PID.TID 0000.0001) %MON dynstat_uvel_del2            =   1.4484824103844E-02
(PID.TID 0000.0001) %MON dynstat_vvel_max             =   3.8588909729197E+01
(PID.TID 0000.0001) %MON dynstat_vvel_min             =  -2.6640751857532E+01
(PID.TID 0000.0001) %MON dynstat_vvel_mean            =   1.1767801879505E+01
(PID.TID 0000.0001) %MON dynstat_vvel_sd              =   1.8925337749668E+01
(PID.TID 0000.0001) %MON dynstat_vvel_del2            =   1.4484824103844E-02
(PID.TID 0000.0001) %MON dynstat_wvel_max             =   6.1243529367355E-15
(PID.TID 0000.0001) %MON dynstat_wvel_min             =  -6.1243529367429E-15
(PID.TID 0000.0001) %MON dynstat_wvel_mean            =   2.1545860175660E-18
(PID.TID 0000.0001) %MON dynstat_wvel_sd              =   1.4391378503775E-15
(PID.TID 0000.0001) %MON dynstat_wvel_del2            =   7.4668782645351E-17
(PID.TID 0000.0001) %MON dynstat_theta_max            =   1.8523815260839E+00
(PID.TID 0000.0001) %MON dynstat_theta_min            =   9.9994526014767E-01
(PID.TID 0000.0001) %MON dynstat_theta_mean           =   1.0066888037826E+00
(PID.TID 0000.0001) %MON dynstat_theta_sd             =   5.7801784587417E-02
(PID.TID 0000.0001) %MON dynstat_theta_del2           =   1.2948318243717E-04
(PID.TID 0000.0001) %MON dynstat_salt_max             =   1.9858069013965E+00
(PID.TID 0000.0001) %MON dynstat_salt_min             =   9.9852852149032E-01
(PID.TID 0000.0001) %MON dynstat_salt_mean            =   1.0066901484881E+00
(PID.TID 0000.0001) %MON dynstat_salt_sd              =   6.1149138884093E-02
(PID.TID 0000.0001) %MON dynstat_salt_del2            =   1.1710349867078E-04
(PID.TID 0000.0001) %MON advcfl_uvel_max              =   7.6804612966358E-01
(PID.TID 0000.0001) %MON advcfl_vvel_max              =   7.6804612966358E-01
(PID.TID 0000.0001) %MON advcfl_wvel_max              =   3.3071505858412E-16
(PID.TID 0000.0001) %MON advcfl_W_hf_max              =   0.0000000000000E+00
(PID.TID 0000.0001) %MON pe_b_mean                    =   0.0000000000000E+00
(PID.TID 0000.0001) %MON ke_max                       =   7.4475958662786E+02
(PID.TID 0000.0001) %MON ke_mean                      =   4.9660795630338E+02
(PID.TID 0000.0001) %MON ke_vol                       =   5.0990436378172E+19
(PID.TID 0000.0001) // =======================================================
(PID.TID 0000.0001) // End MONITOR dynamic field statistics
(PID.TID 0000.0001) // =======================================================
 Compute Stats, Diag. #     26  THETA     vol(   0 ): 5.099E+19  Parms: SMR     MR      
 Compute Stats, Diag. #     27  SALT      vol(   0 ): 5.099E+19  Parms: SMR     MR      
 Compute Stats, Diag. #    140  SM_v_SLT  vol(   0 ): 5.099E+19  Parms: SM P    MR      
(PID.TID 0000.0001) // =======================================================
(PID.TID 0000.0001) // Begin MONITOR dynamic field statistics
(PID.TID 0000.0001) // =======================================================
(PID.TID 0000.0001) %MON time_tsnumber                =                   152
(PID.TID 0000.0001) %MON time_secondsf                =   4.1040000000000E+05
(PID.TID 0000.0001) %MON dynstat_eta_max              =   0.0000000000000E+00
(PID.TID 0000.0001) %MON dynstat_eta_min              =   0.0000000000000E+00
(PID.TID 0000.0001) %MON dynstat_eta_mean             =   0.0000000000000E+00
(PID.TID 0000.0001) %MON dynstat_eta_sd               =   0.0000000000000E+00
(PID.TID 0000.0001) %MON dynstat_eta_del2             =   0.0000000000000E+00
(PID.TID 0000.0001) %MON dynstat_uvel_max             =   3.8588909729197E+01
(PID.TID 0000.0001) %MON dynstat_uvel_min             =  -2.6640751857532E+01
(PID.TID 0000.0001) %MON dynstat_uvel_mean            =   1.1767801879505E+01
(PID.TID 0000.0001) %MON dynstat_uvel_sd              =   1.8925337749668E+01
(PID.TID 0000.0001) %MON dynstat_uvel_del2            =   1.4484824103844E-02
(PID.TID 0000.0001) %MON dynstat_vvel_max             =   3.8588909729197E+01
(PID.TID 0000.0001) %MON dynstat_vvel_min             =  -2.6640751857532E+01
(PID.TID 0000.0001) %MON dynstat_vvel_mean            =   1.1767801879505E+01
(PID.TID 0000.0001) %MON dynstat_vvel_sd              =   1.8925337749668E+01
(PID.TID 0000.0001) %MON dynstat_vvel_del2            =   1.4484824103844E-02
(PID.TID 0000.0001) %MON dynstat_wvel_max             =   6.1243529367355E-15
(PID.TID 0000.0001) %MON dynstat_wvel_min             =  -6.1243529367429E-15
(PID.TID 0000.0001) %MON dynstat_wvel_mean            =   2.1545860175660E-18
(PID.TID 0000.0001) %MON dynstat_wvel_sd              =   1.4391378503775E-15
(PID.TID 0000.0001) %MON dynstat_wvel_del2            =   7.4668782645351E-17
(PID.TID 0000.0001) %MON dynstat_theta_max            =   1.8491377089788E+00
(PID.TID 0000.0001) %MON dynstat_theta_min            =   9.9994861424258E-01
(PID.TID 0000.0001) %MON dynstat_theta_mean           =   1.0066888037826E+00
(PID.TID 0000.0001) %MON dynstat_theta_sd             =   5.7646467670931E-02
(PID.TID 0000.0001) %MON dynstat_theta_del2           =   1.2978171961393E-04
(PID.TID 0000.0001) %MON dynstat_salt_max             =   1.9814326394039E+00
(PID.TID 0000.0001) %MON dynstat_salt_min             =   9.9837499781617E-01
(PID.TID 0000.0001) %MON dynstat_salt_mean            =   1.0066901484881E+00
(PID.TID 0000.0001) %MON dynstat_salt_sd              =   6.1134542712892E-02
(PID.TID 0000.0001) %MON dynstat_salt_del2            =   1.2271887642176E-04
(PID.TID 0000.0001) %MON advcfl_uvel_max              =   7.6804612966358E-01
(PID.TID 0000.0001) %MON advcfl_vvel_max              =   7.6804612966358E-01
(PID.TID 0000.0001) %MON advcfl_wvel_max              =   3.3071505858412E-16
(PID.TID 0000.0001) %MON advcfl_W_hf_max              =   0.0000000000000E+00
(PID.TID 0000.0001) %MON pe_b_mean                    =   0.0000000000000E+00
(PID.TID 0000.0001) %MON ke_max                       =   7.4475958662786E+02
(PID.TID 0000.0001) %MON ke_mean                      =   4.9660795630338E+02
(PID.TID 0000.0001) %MON ke_vol                       =   5.0990436378172E+19
(PID.TID 0000.0001) // =======================================================
(PID.TID 0000.0001) // End MONITOR dynamic field statistics
(PID.TID 0000.0001) // =======================================================
 Compute Stats, Diag. #     26  THETA     vol(   0 ): 5.099E+19  Parms: SMR     MR      
 Compute Stats, Diag. #     27  SALT      vol(   0 ): 5.099E+19  Parms: SMR     MR      
 Compute Stats, Diag. #    140  SM_v_SLT  vol(   0 ): 5.099E+19  Parms: SM P    MR      
(PID.TID 0000.0001) // =======================================================
(PID.TID 0000.0001) // Begin MONITOR dynamic field statistics
(PID.TID 0000.0001) // =======================================================
(PID.TID 0000.0001) %MON time_tsnumber                =                   160
(PID.TID 0000.0001) %MON time_secondsf                =   4.3200000000000E+05
(PID.TID 0000.0001) %MON dynstat_eta_max              =   0.0000000000000E+00
(PID.TID 0000.0001) %MON dynstat_eta_min              =   0.0000000000000E+00
(PID.TID 0000.0001) %MON dynstat_eta_mean             =   0.0000000000000E+00
(PID.TID 0000.0001) %MON dynstat_eta_sd               =   0.0000000000000E+00
(PID.TID 0000.0001) %MON dynstat_eta_del2             =   0.0000000000000E+00
(PID.TID 0000.0001) %MON dynstat_uvel_max             =   3.8588909729197E+01
(PID.TID 0000.0001) %MON dynstat_uvel_min             =  -2.6640751857532E+01
(PID.TID 0000.0001) %MON dynstat_uvel_mean            =   1.1767801879505E+01
(PID.TID 0000.0001) %MON dynstat_uvel_sd              =   1.8925337749668E+01
(PID.TID 0000.0001) %MON dynstat_uvel_del2            =   1.4484824103844E-02
(PID.TID 0000.0001) %MON dynstat_vvel_max             =   3.8588909729197E+01
(PID.TID 0000.0001) %MON dynstat_vvel_min             =  -2.6640751857532E+01
(PID.TID 0000.0001) %MON dynstat_vvel_mean            =   1.1767801879505E+01
(PID.TID 0000.0001) %MON dynstat_vvel_sd              =   1.8925337749668E+01
(PID.TID 0000.0001) %MON dynstat_vvel_del2            =   1.4484824103844E-02
(PID.TID 0000.0001) %MON dynstat_wvel_max             =   6.1243529367355E-15
(PID.TID 0000.0001) %MON dynstat_wvel_min             =  -6.1243529367429E-15
(PID.TID 0000.0001) %MON dynstat_wvel_mean            =   2.1545860175660E-18
(PID.TID 0000.0001) %MON dynstat_wvel_sd              =   1.4391378503775E-15
(PID.TID 0000.0001) %MON dynstat_wvel_del2            =   7.4668782645351E-17
(PID.TID 0000.0001) %MON dynstat_theta_max            =   1.8471613626178E+00
(PID.TID 0000.0001) %MON dynstat_theta_min            =   9.9995060703487E-01
(PID.TID 0000.0001) %MON dynstat_theta_mean           =   1.0066888037826E+00
(PID.TID 0000.0001) %MON dynstat_theta_sd             =   5.7493912278100E-02
(PID.TID 0000.0001) %MON dynstat_theta_del2           =   1.3065559017425E-04
(PID.TID 0000.0001) %MON dynstat_salt_max             =   1.9804171125880E+00
(PID.TID 0000.0001) %MON dynstat_salt_min             =   9.9850297996005E-01
(PID.TID 0000.0001) %MON dynstat_salt_mean            =   1.0066901484881E+00
(PID.TID 0000.0001) %MON dynstat_salt_sd              =   6.1096480177158E-02
(PID.TID 0000.0001) %MON dynstat_salt_del2            =   1.3468277722433E-04
(PID.TID 0000.0001) %MON advcfl_uvel_max              =   7.6804612966358E-01
(PID.TID 0000.0001) %MON advcfl_vvel_max              =   7.6804612966358E-01
(PID.TID 0000.0001) %MON advcfl_wvel_max              =   3.3071505858412E-16
(PID.TID 0000.0001) %MON advcfl_W_hf_max              =   0.0000000000000E+00
(PID.TID 0000.0001) %MON pe_b_mean                    =   0.0000000000000E+00
(PID.TID 0000.0001) %MON ke_max                       =   7.4475958662786E+02
(PID.TID 0000.0001) %MON ke_mean                      =   4.9660795630338E+02
(PID.TID 0000.0001) %MON ke_vol                       =   5.0990436378172E+19
(PID.TID 0000.0001) // =======================================================
(PID.TID 0000.0001) // End MONITOR dynamic field statistics
(PID.TID 0000.0001) // =======================================================
 Computing Diagnostic #     26  THETA        Counter:       1   Parms: SMR     MR      
 Computing Diagnostic #     27  SALT         Counter:       1   Parms: SMR     MR      
 Compute Stats, Diag. #     26  THETA     vol(   0 ): 5.099E+19  Parms: SMR     MR      
 Compute Stats, Diag. #     27  SALT      vol(   0 ): 5.099E+19  Parms: SMR     MR      
 Compute Stats, Diag. #    140  SM_v_SLT  vol(   0 ): 5.099E+19  Parms: SM P    MR      
(PID.TID 0000.0001) // =======================================================
(PID.TID 0000.0001) // Begin MONITOR dynamic field statistics
(PID.TID 0000.0001) // =======================================================
(PID.TID 0000.0001) %MON time_tsnumber                =                   168
(PID.TID 0000.0001) %MON time_secondsf                =   4.5360000000000E+05
(PID.TID 0000.0001) %MON dynstat_eta_max              =   0.0000000000000E+00
(PID.TID 0000.0001) %MON dynstat_eta_min              =   0.0000000000000E+00
(PID.TID 0000.0001) %MON dynstat_eta_mean             =   0.0000000000000E+00
(PID.TID 0000.0001) %MON dynstat_eta_sd               =   0.0000000000000E+00
(PID.TID 0000.0001) %MON dynstat_eta_del2             =   0.0000000000000E+00
(PID.TID 0000.0001) %MON dynstat_uvel_max             =   3.8588909729197E+01
(PID.TID 0000.0001) %MON dynstat_uvel_min             =  -2.6640751857532E+01
(PID.TID 0000.0001) %MON dynstat_uvel_mean            =   1.1767801879505E+01
(PID.TID 0000.0001) %MON dynstat_uvel_sd              =   1.8925337749668E+01
(PID.TID 0000.0001) %MON dynstat_uvel_del2            =   1.4484824103844E-02
(PID.TID 0000.0001) %MON dynstat_vvel_max             =   3.8588909729197E+01
(PID.TID 0000.0001) %MON dynstat_vvel_min             =  -2.6640751857532E+01
(PID.TID 0000.0001) %MON dynstat_vvel_mean            =   1.1767801879505E+01
(PID.TID 0000.0001) %MON dynstat_vvel_sd              =   1.8925337749668E+01
(PID.TID 0000.0001) %MON dynstat_vvel_del2            =   1.4484824103844E-02
(PID.TID 0000.0001) %MON dynstat_wvel_max             =   6.1243529367355E-15
(PID.TID 0000.0001) %MON dynstat_wvel_min             =  -6.1243529367429E-15
(PID.TID 0000.0001) %MON dynstat_wvel_mean            =   2.1545860175660E-18
(PID.TID 0000.0001) %MON dynstat_wvel_sd              =   1.4391378503775E-15
(PID.TID 0000.0001) %MON dynstat_wvel_del2            =   7.4668782645351E-17
(PID.TID 0000.0001) %MON dynstat_theta_max            =   1.8431714860960E+00
(PID.TID 0000.0001) %MON dynstat_theta_min            =   9.9995087907506E-01
(PID.TID 0000.0001) %MON dynstat_theta_mean           =   1.0066888037826E+00
(PID.TID 0000.0001) %MON dynstat_theta_sd             =   5.7341179407304E-02
(PID.TID 0000.0001) %MON dynstat_theta_del2           =   1.3156706169579E-04
(PID.TID 0000.0001) %MON dynstat_salt_max             =   1.9571784341016E+00
(PID.TID 0000.0001) %MON dynstat_salt_min             =   9.9843666579033E-01
(PID.TID 0000.0001) %MON dynstat_salt_mean            =   1.0066901484881E+00
(PID.TID 0000.0001) %MON dynstat_salt_sd              =   6.1047478059907E-02
(PID.TID 0000.0001) %MON dynstat_salt_del2            =   1.4033035387466E-04
(PID.TID 0000.0001) %MON advcfl_uvel_max              =   7.6804612966358E-01
(PID.TID 0000.0001) %MON advcfl_vvel_max              =   7.6804612966358E-01
(PID.TID 0000.0001) %MON advcfl_wvel_max              =   3.3071505858412E-16
(PID.TID 0000.0001) %MON advcfl_W_hf_max              =   0.0000000000000E+00
(PID.TID 0000.0001) %MON pe_b_mean                    =   0.0000000000000E+00
(PID.TID 0000.0001) %MON ke_max                       =   7.4475958662786E+02
(PID.TID 0000.0001) %MON ke_mean                      =   4.9660795630338E+02
(PID.TID 0000.0001) %MON ke_vol                       =   5.0990436378172E+19
(PID.TID 0000.0001) // =======================================================
(PID.TID 0000.0001) // End MONITOR dynamic field statistics
(PID.TID 0000.0001) // =======================================================
 Compute Stats, Diag. #     26  THETA     vol(   0 ): 5.099E+19  Parms: SMR     MR      
 Compute Stats, Diag. #     27  SALT      vol(   0 ): 5.099E+19  Parms: SMR     MR      
 Compute Stats, Diag. #    140  SM_v_SLT  vol(   0 ): 5.099E+19  Parms: SM P    MR      
(PID.TID 0000.0001) // =======================================================
(PID.TID 0000.0001) // Begin MONITOR dynamic field statistics
(PID.TID 0000.0001) // =======================================================
(PID.TID 0000.0001) %MON time_tsnumber                =                   176
(PID.TID 0000.0001) %MON time_secondsf                =   4.7520000000000E+05
(PID.TID 0000.0001) %MON dynstat_eta_max              =   0.0000000000000E+00
(PID.TID 0000.0001) %MON dynstat_eta_min              =   0.0000000000000E+00
(PID.TID 0000.0001) %MON dynstat_eta_mean             =   0.0000000000000E+00
(PID.TID 0000.0001) %MON dynstat_eta_sd               =   0.0000000000000E+00
(PID.TID 0000.0001) %MON dynstat_eta_del2             =   0.0000000000000E+00
(PID.TID 0000.0001) %MON dynstat_uvel_max             =   3.8588909729197E+01
(PID.TID 0000.0001) %MON dynstat_uvel_min             =  -2.6640751857532E+01
(PID.TID 0000.0001) %MON dynstat_uvel_mean            =   1.1767801879505E+01
(PID.TID 0000.0001) %MON dynstat_uvel_sd              =   1.8925337749668E+01
(PID.TID 0000.0001) %MON dynstat_uvel_del2            =   1.4484824103844E-02
(PID.TID 0000.0001) %MON dynstat_vvel_max             =   3.8588909729197E+01
(PID.TID 0000.0001) %MON dynstat_vvel_min             =  -2.6640751857532E+01
(PID.TID 0000.0001) %MON dynstat_vvel_mean            =   1.1767801879505E+01
(PID.TID 0000.0001) %MON dynstat_vvel_sd              =   1.8925337749668E+01
(PID.TID 0000.0001) %MON dynstat_vvel_del2            =   1.4484824103844E-02
(PID.TID 0000.0001) %MON dynstat_wvel_max             =   6.1243529367355E-15
(PID.TID 0000.0001) %MON dynstat_wvel_min             =  -6.1243529367429E-15
(PID.TID 0000.0001) %MON dynstat_wvel_mean            =   2.1545860175660E-18
(PID.TID 0000.0001) %MON dynstat_wvel_sd              =   1.4391378503775E-15
(PID.TID 0000.0001) %MON dynstat_wvel_del2            =   7.4668782645351E-17
(PID.TID 0000.0001) %MON dynstat_theta_max            =   1.8387789535554E+00
(PID.TID 0000.0001) %MON dynstat_theta_min            =   9.9993822626342E-01
(PID.TID 0000.0001) %MON dynstat_theta_mean           =   1.0066888037826E+00
(PID.TID 0000.0001) %MON dynstat_theta_sd             =   5.7183473409306E-02
(PID.TID 0000.0001) %MON dynstat_theta_del2           =   1.3285151144640E-04
(PID.TID 0000.0001) %MON dynstat_salt_max             =   1.9766066316152E+00
(PID.TID 0000.0001) %MON dynstat_salt_min             =   9.9829795395869E-01
(PID.TID 0000.0001) %MON dynstat_salt_mean            =   1.0066901484881E+00
(PID.TID 0000.0001) %MON dynstat_salt_sd              =   6.1009268890664E-02
(PID.TID 0000.0001) %MON dynstat_salt_del2            =   1.4564471161693E-04
(PID.TID 0000.0001) %MON advcfl_uvel_max              =   7.6804612966358E-01
(PID.TID 0000.0001) %MON advcfl_vvel_max              =   7.6804612966358E-01
(PID.TID 0000.0001) %MON advcfl_wvel_max              =   3.3071505858412E-16
(PID.TID 0000.0001) %MON advcfl_W_hf_max              =   0.0000000000000E+00
(PID.TID 0000.0001) %MON pe_b_mean                    =   0.0000000000000E+00
(PID.TID 0000.0001) %MON ke_max                       =   7.4475958662786E+02
(PID.TID 0000.0001) %MON ke_mean                      =   4.9660795630338E+02
(PID.TID 0000.0001) %MON ke_vol                       =   5.0990436378172E+19
(PID.TID 0000.0001) // =======================================================
(PID.TID 0000.0001) // End MONITOR dynamic field statistics
(PID.TID 0000.0001) // =======================================================
 Compute Stats, Diag. #     26  THETA     vol(   0 ): 5.099E+19  Parms: SMR     MR      
 Compute Stats, Diag. #     27  SALT      vol(   0 ): 5.099E+19  Parms: SMR     MR      
 Compute Stats, Diag. #    140  SM_v_SLT  vol(   0 ): 5.099E+19  Parms: SM P    MR      
(PID.TID 0000.0001) // =======================================================
(PID.TID 0000.0001) // Begin MONITOR dynamic field statistics
(PID.TID 0000.0001) // =======================================================
(PID.TID 0000.0001) %MON time_tsnumber                =                   184
(PID.TID 0000.0001) %MON time_secondsf                =   4.9680000000000E+05
(PID.TID 0000.0001) %MON dynstat_eta_max              =   0.0000000000000E+00
(PID.TID 0000.0001) %MON dynstat_eta_min              =   0.0000000000000E+00
(PID.TID 0000.0001) %MON dynstat_eta_mean             =   0.0000000000000E+00
(PID.TID 0000.0001) %MON dynstat_eta_sd               =   0.0000000000000E+00
(PID.TID 0000.0001) %MON dynstat_eta_del2             =   0.0000000000000E+00
(PID.TID 0000.0001) %MON dynstat_uvel_max             =   3.8588909729197E+01
(PID.TID 0000.0001) %MON dynstat_uvel_min             =  -2.6640751857532E+01
(PID.TID 0000.0001) %MON dynstat_uvel_mean            =   1.1767801879505E+01
(PID.TID 0000.0001) %MON dynstat_uvel_sd              =   1.8925337749668E+01
(PID.TID 0000.0001) %MON dynstat_uvel_del2            =   1.4484824103844E-02
(PID.TID 0000.0001) %MON dynstat_vvel_max             =   3.8588909729197E+01
(PID.TID 0000.0001) %MON dynstat_vvel_min             =  -2.6640751857532E+01
(PID.TID 0000.0001) %MON dynstat_vvel_mean            =   1.1767801879505E+01
(PID.TID 0000.0001) %MON dynstat_vvel_sd              =   1.8925337749668E+01
(PID.TID 0000.0001) %MON dynstat_vvel_del2            =   1.4484824103844E-02
(PID.TID 0000.0001) %MON dynstat_wvel_max             =   6.1243529367355E-15
(PID.TID 0000.0001) %MON dynstat_wvel_min             =  -6.1243529367429E-15
(PID.TID 0000.0001) %MON dynstat_wvel_mean            =   2.1545860175660E-18
(PID.TID 0000.0001) %MON dynstat_wvel_sd              =   1.4391378503775E-15
(PID.TID 0000.0001) %MON dynstat_wvel_del2            =   7.4668782645351E-17
(PID.TID 0000.0001) %MON dynstat_theta_max            =   1.8333604157091E+00
(PID.TID 0000.0001) %MON dynstat_theta_min            =   9.9986980694251E-01
(PID.TID 0000.0001) %MON dynstat_theta_mean           =   1.0066888037826E+00
(PID.TID 0000.0001) %MON dynstat_theta_sd             =   5.7023572698785E-02
(PID.TID 0000.0001) %MON dynstat_theta_del2           =   1.3370282592927E-04
(PID.TID 0000.0001) %MON dynstat_salt_max             =   1.9757604804024E+00
(PID.TID 0000.0001) %MON dynstat_salt_min             =   9.9817003205004E-01
(PID.TID 0000.0001) %MON dynstat_salt_mean            =   1.0066901484881E+00
(PID.TID 0000.0001) %MON dynstat_salt_sd              =   6.0987090856389E-02
(PID.TID 0000.0001) %MON dynstat_salt_del2            =   1.4837779006212E-04
(PID.TID 0000.0001) %MON advcfl_uvel_max              =   7.6804612966358E-01
(PID.TID 0000.0001) %MON advcfl_vvel_max              =   7.6804612966358E-01
(PID.TID 0000.0001) %MON advcfl_wvel_max              =   3.3071505858412E-16
(PID.TID 0000.0001) %MON advcfl_W_hf_max              =   0.0000000000000E+00
(PID.TID 0000.0001) %MON pe_b_mean                    =   0.0000000000000E+00
(PID.TID 0000.0001) %MON ke_max                       =   7.4475958662786E+02
(PID.TID 0000.0001) %MON ke_mean                      =   4.9660795630338E+02
(PID.TID 0000.0001) %MON ke_vol                       =   5.0990436378172E+19
(PID.TID 0000.0001) // =======================================================
(PID.TID 0000.0001) // End MONITOR dynamic field statistics
(PID.TID 0000.0001) // =======================================================
 Compute Stats, Diag. #     26  THETA     vol(   0 ): 5.099E+19  Parms: SMR     MR      
 Compute Stats, Diag. #     27  SALT      vol(   0 ): 5.099E+19  Parms: SMR     MR      
 Compute Stats, Diag. #    140  SM_v_SLT  vol(   0 ): 5.099E+19  Parms: SM P    MR      
(PID.TID 0000.0001) // =======================================================
(PID.TID 0000.0001) // Begin MONITOR dynamic field statistics
(PID.TID 0000.0001) // =======================================================
(PID.TID 0000.0001) %MON time_tsnumber                =                   192
(PID.TID 0000.0001) %MON time_secondsf                =   5.1840000000000E+05
(PID.TID 0000.0001) %MON dynstat_eta_max              =   0.0000000000000E+00
(PID.TID 0000.0001) %MON dynstat_eta_min              =   0.0000000000000E+00
(PID.TID 0000.0001) %MON dynstat_eta_mean             =   0.0000000000000E+00
(PID.TID 0000.0001) %MON dynstat_eta_sd               =   0.0000000000000E+00
(PID.TID 0000.0001) %MON dynstat_eta_del2             =   0.0000000000000E+00
(PID.TID 0000.0001) %MON dynstat_uvel_max             =   3.8588909729197E+01
(PID.TID 0000.0001) %MON dynstat_uvel_min             =  -2.6640751857532E+01
(PID.TID 0000.0001) %MON dynstat_uvel_mean            =   1.1767801879505E+01
(PID.TID 0000.0001) %MON dynstat_uvel_sd              =   1.8925337749668E+01
(PID.TID 0000.0001) %MON dynstat_uvel_del2            =   1.4484824103844E-02
(PID.TID 0000.0001) %MON dynstat_vvel_max             =   3.8588909729197E+01
(PID.TID 0000.0001) %MON dynstat_vvel_min             =  -2.6640751857532E+01
(PID.TID 0000.0001) %MON dynstat_vvel_mean            =   1.1767801879505E+01
(PID.TID 0000.0001) %MON dynstat_vvel_sd              =   1.8925337749668E+01
(PID.TID 0000.0001) %MON dynstat_vvel_del2            =   1.4484824103844E-02
(PID.TID 0000.0001) %MON dynstat_wvel_max             =   6.1243529367355E-15
(PID.TID 0000.0001) %MON dynstat_wvel_min             =  -6.1243529367429E-15
(PID.TID 0000.0001) %MON dynstat_wvel_mean            =   2.1545860175660E-18
(PID.TID 0000.0001) %MON dynstat_wvel_sd              =   1.4391378503775E-15
(PID.TID 0000.0001) %MON dynstat_wvel_del2            =   7.4668782645351E-17
(PID.TID 0000.0001) %MON dynstat_theta_max            =   1.8247494246013E+00
(PID.TID 0000.0001) %MON dynstat_theta_min            =   9.9986826451106E-01
(PID.TID 0000.0001) %MON dynstat_theta_mean           =   1.0066888037826E+00
(PID.TID 0000.0001) %MON dynstat_theta_sd             =   5.6864211396615E-02
(PID.TID 0000.0001) %MON dynstat_theta_del2           =   1.3298742520887E-04
(PID.TID 0000.0001) %MON dynstat_salt_max             =   1.9662872405889E+00
(PID.TID 0000.0001) %MON dynstat_salt_min             =   9.9810541405538E-01
(PID.TID 0000.0001) %MON dynstat_salt_mean            =   1.0066901484881E+00
(PID.TID 0000.0001) %MON dynstat_salt_sd              =   6.0977498625259E-02
(PID.TID 0000.0001) %MON dynstat_salt_del2            =   1.4928473544900E-04
(PID.TID 0000.0001) %MON advcfl_uvel_max              =   7.6804612966358E-01
(PID.TID 0000.0001) %MON advcfl_vvel_max              =   7.6804612966358E-01
(PID.TID 0000.0001) %MON advcfl_wvel_max              =   3.3071505858412E-16
(PID.TID 0000.0001) %MON advcfl_W_hf_max              =   0.0000000000000E+00
(PID.TID 0000.0001) %MON pe_b_mean                    =   0.0000000000000E+00
(PID.TID 0000.0001) %MON ke_max                       =   7.4475958662786E+02
(PID.TID 0000.0001) %MON ke_mean                      =   4.9660795630338E+02
(PID.TID 0000.0001) %MON ke_vol                       =   5.0990436378172E+19
(PID.TID 0000.0001) // =======================================================
(PID.TID 0000.0001) // End MONITOR dynamic field statistics
(PID.TID 0000.0001) // =======================================================
(PID.TID 0000.0001) DIAGSTATS_CLOSE_IO: close file: dynStDiag.0000000000.txt , unit=     9
(PID.TID 0000.0001) %CHECKPOINT       192 ckptA
(PID.TID 0000.0001)   Seconds in section "ALL                    [THE_MODEL_MAIN]":
(PID.TID 0000.0001)           User time:   11.740000000000000
(PID.TID 0000.0001)         System time:  4.00000000000000008E-002
(PID.TID 0000.0001)     Wall clock time:   11.867717981338501
(PID.TID 0000.0001)          No. starts:           1
(PID.TID 0000.0001)           No. stops:           1
(PID.TID 0000.0001)   Seconds in section "INITIALISE_FIXED       [THE_MODEL_MAIN]":
(PID.TID 0000.0001)           User time:  8.99999999999999967E-002
(PID.TID 0000.0001)         System time:  2.00000000000000004E-002
(PID.TID 0000.0001)     Wall clock time:  0.17140603065490723
(PID.TID 0000.0001)          No. starts:           1
(PID.TID 0000.0001)           No. stops:           1
(PID.TID 0000.0001)   Seconds in section "THE_MAIN_LOOP          [THE_MODEL_MAIN]":
(PID.TID 0000.0001)           User time:   11.650000000000000
(PID.TID 0000.0001)         System time:  2.00000000000000004E-002
(PID.TID 0000.0001)     Wall clock time:   11.696269989013672
(PID.TID 0000.0001)          No. starts:           1
(PID.TID 0000.0001)           No. stops:           1
(PID.TID 0000.0001)   Seconds in section "INITIALISE_VARIA    [THE_MAIN_LOOP]":
(PID.TID 0000.0001)           User time:  4.00000000000000078E-002
(PID.TID 0000.0001)         System time:  9.99999999999999847E-003
(PID.TID 0000.0001)     Wall clock time:  5.42800426483154297E-002
(PID.TID 0000.0001)          No. starts:           1
(PID.TID 0000.0001)           No. stops:           1
(PID.TID 0000.0001)   Seconds in section "MAIN LOOP           [THE_MAIN_LOOP]":
(PID.TID 0000.0001)           User time:   11.609999999999999
(PID.TID 0000.0001)         System time:  1.00000000000000019E-002
(PID.TID 0000.0001)     Wall clock time:   11.641960144042969
(PID.TID 0000.0001)          No. starts:           1
(PID.TID 0000.0001)           No. stops:           1
(PID.TID 0000.0001)   Seconds in section "MAIN_DO_LOOP        [THE_MAIN_LOOP]":
(PID.TID 0000.0001)           User time:   11.609999999999999
(PID.TID 0000.0001)         System time:  1.00000000000000019E-002
(PID.TID 0000.0001)     Wall clock time:   11.641942024230957
(PID.TID 0000.0001)          No. starts:           1
(PID.TID 0000.0001)           No. stops:           1
(PID.TID 0000.0001)   Seconds in section "FORWARD_STEP        [MAIN_DO_LOOP]":
(PID.TID 0000.0001)           User time:   11.609999999999976
(PID.TID 0000.0001)         System time:  1.00000000000000019E-002
(PID.TID 0000.0001)     Wall clock time:   11.640202760696411
(PID.TID 0000.0001)          No. starts:         192
(PID.TID 0000.0001)           No. stops:         192
(PID.TID 0000.0001)   Seconds in section "DO_STATEVARS_DIAGS  [FORWARD_STEP]":
(PID.TID 0000.0001)           User time:  0.12999999999999901
(PID.TID 0000.0001)         System time:   0.0000000000000000
(PID.TID 0000.0001)     Wall clock time:  0.11930656433105469
(PID.TID 0000.0001)          No. starts:         384
(PID.TID 0000.0001)           No. stops:         384
(PID.TID 0000.0001)   Seconds in section "LOAD_FIELDS_DRIVER  [FORWARD_STEP]":
(PID.TID 0000.0001)           User time:   0.0000000000000000
(PID.TID 0000.0001)         System time:   0.0000000000000000
(PID.TID 0000.0001)     Wall clock time:  5.21111488342285156E-003
(PID.TID 0000.0001)          No. starts:         192
(PID.TID 0000.0001)           No. stops:         192
(PID.TID 0000.0001)   Seconds in section "EXTERNAL_FLDS_LOAD [LOAD_FLDS_DRIVER]":
(PID.TID 0000.0001)           User time:   0.0000000000000000
(PID.TID 0000.0001)         System time:   0.0000000000000000
(PID.TID 0000.0001)     Wall clock time:  1.75070762634277344E-003
(PID.TID 0000.0001)          No. starts:         192
(PID.TID 0000.0001)           No. stops:         192
(PID.TID 0000.0001)   Seconds in section "DO_ATMOSPHERIC_PHYS [FORWARD_STEP]":
(PID.TID 0000.0001)           User time:   0.0000000000000000
(PID.TID 0000.0001)         System time:   0.0000000000000000
(PID.TID 0000.0001)     Wall clock time:  1.73068046569824219E-003
(PID.TID 0000.0001)          No. starts:         192
(PID.TID 0000.0001)           No. stops:         192
(PID.TID 0000.0001)   Seconds in section "DO_OCEANIC_PHYS     [FORWARD_STEP]":
(PID.TID 0000.0001)           User time:  0.40000000000000213
(PID.TID 0000.0001)         System time:   0.0000000000000000
(PID.TID 0000.0001)     Wall clock time:  0.41119480133056641
(PID.TID 0000.0001)          No. starts:         192
(PID.TID 0000.0001)           No. stops:         192
(PID.TID 0000.0001)   Seconds in section "THERMODYNAMICS      [FORWARD_STEP]":
(PID.TID 0000.0001)           User time:   9.6099999999999692
(PID.TID 0000.0001)         System time:   0.0000000000000000
(PID.TID 0000.0001)     Wall clock time:   9.6416342258453369
(PID.TID 0000.0001)          No. starts:         192
(PID.TID 0000.0001)           No. stops:         192
(PID.TID 0000.0001)   Seconds in section "TRC_CORRECTION_STEP [FORWARD_STEP]":
(PID.TID 0000.0001)           User time:  0.10000000000000142
(PID.TID 0000.0001)         System time:   0.0000000000000000
(PID.TID 0000.0001)     Wall clock time:  9.41576957702636719E-002
(PID.TID 0000.0001)          No. starts:         192
(PID.TID 0000.0001)           No. stops:         192
(PID.TID 0000.0001)   Seconds in section "BLOCKING_EXCHANGES  [FORWARD_STEP]":
(PID.TID 0000.0001)           User time:  0.98999999999999844
(PID.TID 0000.0001)         System time:   0.0000000000000000
(PID.TID 0000.0001)     Wall clock time:   1.0035257339477539
(PID.TID 0000.0001)          No. starts:         192
(PID.TID 0000.0001)           No. stops:         192
(PID.TID 0000.0001)   Seconds in section "MONITOR             [FORWARD_STEP]":
(PID.TID 0000.0001)           User time:  0.31000000000000050
(PID.TID 0000.0001)         System time:   0.0000000000000000
(PID.TID 0000.0001)     Wall clock time:  0.30405783653259277
(PID.TID 0000.0001)          No. starts:         192
(PID.TID 0000.0001)           No. stops:         192
(PID.TID 0000.0001)   Seconds in section "DO_THE_MODEL_IO     [FORWARD_STEP]":
(PID.TID 0000.0001)           User time:  9.99999999999978684E-003
(PID.TID 0000.0001)         System time:  1.00000000000000019E-002
(PID.TID 0000.0001)     Wall clock time:  2.41932868957519531E-002
(PID.TID 0000.0001)          No. starts:         192
(PID.TID 0000.0001)           No. stops:         192
(PID.TID 0000.0001)   Seconds in section "DO_WRITE_PICKUP     [FORWARD_STEP]":
(PID.TID 0000.0001)           User time:  1.99999999999995737E-002
(PID.TID 0000.0001)         System time:   0.0000000000000000
(PID.TID 0000.0001)     Wall clock time:  1.33736133575439453E-002
(PID.TID 0000.0001)          No. starts:         192
(PID.TID 0000.0001)           No. stops:         192
(PID.TID 0000.0001) // ======================================================
(PID.TID 0000.0001) // Tile <-> Tile communication statistics
(PID.TID 0000.0001) // ======================================================
(PID.TID 0000.0001) // o Tile number: 000001
(PID.TID 0000.0001) //         No. X exchanges =              0
(PID.TID 0000.0001) //            Max. X spins =              0
(PID.TID 0000.0001) //            Min. X spins =     1000000000
(PID.TID 0000.0001) //          Total. X spins =              0
(PID.TID 0000.0001) //            Avg. X spins =       0.00E+00
(PID.TID 0000.0001) //         No. Y exchanges =              0
(PID.TID 0000.0001) //            Max. Y spins =              0
(PID.TID 0000.0001) //            Min. Y spins =     1000000000
(PID.TID 0000.0001) //          Total. Y spins =              0
(PID.TID 0000.0001) //            Avg. Y spins =       0.00E+00
(PID.TID 0000.0001) // o Tile number: 000002
(PID.TID 0000.0001) //         No. X exchanges =              0
(PID.TID 0000.0001) //            Max. X spins =              0
(PID.TID 0000.0001) //            Min. X spins =     1000000000
(PID.TID 0000.0001) //          Total. X spins =              0
(PID.TID 0000.0001) //            Avg. X spins =       0.00E+00
(PID.TID 0000.0001) //         No. Y exchanges =              0
(PID.TID 0000.0001) //            Max. Y spins =              0
(PID.TID 0000.0001) //            Min. Y spins =     1000000000
(PID.TID 0000.0001) //          Total. Y spins =              0
(PID.TID 0000.0001) //            Avg. Y spins =       0.00E+00
(PID.TID 0000.0001) // o Tile number: 000003
(PID.TID 0000.0001) //         No. X exchanges =              0
(PID.TID 0000.0001) //            Max. X spins =              0
(PID.TID 0000.0001) //            Min. X spins =     1000000000
(PID.TID 0000.0001) //          Total. X spins =              0
(PID.TID 0000.0001) //            Avg. X spins =       0.00E+00
(PID.TID 0000.0001) //         No. Y exchanges =              0
(PID.TID 0000.0001) //            Max. Y spins =              0
(PID.TID 0000.0001) //            Min. Y spins =     1000000000
(PID.TID 0000.0001) //          Total. Y spins =              0
(PID.TID 0000.0001) //            Avg. Y spins =       0.00E+00
(PID.TID 0000.0001) // o Tile number: 000004
(PID.TID 0000.0001) //         No. X exchanges =              0
(PID.TID 0000.0001) //            Max. X spins =              0
(PID.TID 0000.0001) //            Min. X spins =     1000000000
(PID.TID 0000.0001) //          Total. X spins =              0
(PID.TID 0000.0001) //            Avg. X spins =       0.00E+00
(PID.TID 0000.0001) //         No. Y exchanges =              0
(PID.TID 0000.0001) //            Max. Y spins =              0
(PID.TID 0000.0001) //            Min. Y spins =     1000000000
(PID.TID 0000.0001) //          Total. Y spins =              0
(PID.TID 0000.0001) //            Avg. Y spins =       0.00E+00
(PID.TID 0000.0001) // o Tile number: 000005
(PID.TID 0000.0001) //         No. X exchanges =              0
(PID.TID 0000.0001) //            Max. X spins =              0
(PID.TID 0000.0001) //            Min. X spins =     1000000000
(PID.TID 0000.0001) //          Total. X spins =              0
(PID.TID 0000.0001) //            Avg. X spins =       0.00E+00
(PID.TID 0000.0001) //         No. Y exchanges =              0
(PID.TID 0000.0001) //            Max. Y spins =              0
(PID.TID 0000.0001) //            Min. Y spins =     1000000000
(PID.TID 0000.0001) //          Total. Y spins =              0
(PID.TID 0000.0001) //            Avg. Y spins =       0.00E+00
(PID.TID 0000.0001) // o Tile number: 000006
(PID.TID 0000.0001) //         No. X exchanges =              0
(PID.TID 0000.0001) //            Max. X spins =              0
(PID.TID 0000.0001) //            Min. X spins =     1000000000
(PID.TID 0000.0001) //          Total. X spins =              0
(PID.TID 0000.0001) //            Avg. X spins =       0.00E+00
(PID.TID 0000.0001) //         No. Y exchanges =              0
(PID.TID 0000.0001) //            Max. Y spins =              0
(PID.TID 0000.0001) //            Min. Y spins =     1000000000
(PID.TID 0000.0001) //          Total. Y spins =              0
(PID.TID 0000.0001) //            Avg. Y spins =       0.00E+00
(PID.TID 0000.0001) // o Thread number: 000001
(PID.TID 0000.0001) //            No. barriers =          13792
(PID.TID 0000.0001) //      Max. barrier spins =              1
(PID.TID 0000.0001) //      Min. barrier spins =              1
(PID.TID 0000.0001) //     Total barrier spins =          13792
(PID.TID 0000.0001) //      Avg. barrier spins =       1.00E+00
PROGRAM MAIN: Execution ended Normally
