(PID.TID 0000.0001) 
(PID.TID 0000.0001) // ======================================================
(PID.TID 0000.0001) //                      MITgcm UV
(PID.TID 0000.0001) //                      =========
(PID.TID 0000.0001) // ======================================================
(PID.TID 0000.0001) // execution environment starting up...
(PID.TID 0000.0001) 
(PID.TID 0000.0001) // MITgcmUV version:  checkpoint57c_pre
(PID.TID 0000.0001) // Build user:        jmc
(PID.TID 0000.0001) // Build host:        faulks
(PID.TID 0000.0001) // Build date:        Thu Jan 27 09:32:25 EST 2005
(PID.TID 0000.0001) 
(PID.TID 0000.0001) // =======================================================
(PID.TID 0000.0001) // Execution Environment parameter file "eedata"
(PID.TID 0000.0001) // =======================================================
(PID.TID 0000.0001) ># Example "eedata" file
(PID.TID 0000.0001) ># Lines beginning "#" are comments
(PID.TID 0000.0001) ># nTx - No. threads per process in X
(PID.TID 0000.0001) ># nTy - No. threads per process in Y
(PID.TID 0000.0001) > &EEPARMS
(PID.TID 0000.0001) > &
(PID.TID 0000.0001) ># Note: Some systems use & as the
(PID.TID 0000.0001) ># namelist terminator. Other systems
(PID.TID 0000.0001) ># use a / character (as shown here).
(PID.TID 0000.0001) 
(PID.TID 0000.0001) // =======================================================
(PID.TID 0000.0001) // Computational Grid Specification ( see files "SIZE.h" )
(PID.TID 0000.0001) //                                  ( and "eedata"       )
(PID.TID 0000.0001) // =======================================================
(PID.TID 0000.0001)      nPx =    1 ; /* No. processes in X */
(PID.TID 0000.0001)      nPy =    1 ; /* No. processes in Y */
(PID.TID 0000.0001)      nSx =    2 ; /* No. tiles in X per process */
(PID.TID 0000.0001)      nSy =    1 ; /* No. tiles in Y per process */
(PID.TID 0000.0001)      sNx =   64 ; /* Tile size in X */
(PID.TID 0000.0001)      sNy =   23 ; /* Tile size in Y */
(PID.TID 0000.0001)      OLx =    2 ; /* Tile overlap distance in X */
(PID.TID 0000.0001)      OLy =    2 ; /* Tile overlap distance in Y */
(PID.TID 0000.0001)      nTx =    1 ; /* No. threads in X per process */
(PID.TID 0000.0001)      nTy =    1 ; /* No. threads in Y per process */
(PID.TID 0000.0001)       Nr =    5 ; /* No. levels in the vertical   */
(PID.TID 0000.0001)       nX =  128 ; /* Total domain size in X ( = nPx*nSx*sNx ) */
(PID.TID 0000.0001)       nY =   23 ; /* Total domain size in Y ( = nPy*nSy*sNy ) */
(PID.TID 0000.0001)   nTiles =    2 ; /* Total no. tiles per process ( = nSx*nSy ) */
(PID.TID 0000.0001)   nProcs =    1 ; /* Total no. processes ( = nPx*nPy ) */
(PID.TID 0000.0001) nThreads =    1 ; /* Total no. threads per process ( = nTx*nTy ) */
(PID.TID 0000.0001) usingMPI =    F ; /* Flag used to control whether MPI is in use */
(PID.TID 0000.0001)                   /*  note: To execute a program with MPI calls */
(PID.TID 0000.0001)                   /*  it must be launched appropriately e.g     */
(PID.TID 0000.0001)                   /*  "mpirun -np 64 ......"                    */
(PID.TID 0000.0001) useCoupler=   F ; /* Flag used to control communications with */
(PID.TID 0000.0001)                   /*  other model components, through a coupler */
(PID.TID 0000.0001) 
(PID.TID 0000.0001) // ======================================================
(PID.TID 0000.0001) // Mapping of tiles to threads
(PID.TID 0000.0001) // ======================================================
(PID.TID 0000.0001) // -o- Thread   1, tiles (   1:   2,   1:   1)
(PID.TID 0000.0001) 
(PID.TID 0000.0001) // ======================================================
(PID.TID 0000.0001) // Tile <-> Tile connectvity table
(PID.TID 0000.0001) // ======================================================
(PID.TID 0000.0001) // Tile number: 000001 (process no. = 000001)
(PID.TID 0000.0001) //        WEST: Tile = 000002, Process = 000001, Comm = put
(PID.TID 0000.0001) //                bi = 000002, bj = 000001
(PID.TID 0000.0001) //        EAST: Tile = 000002, Process = 000001, Comm = put
(PID.TID 0000.0001) //                bi = 000002, bj = 000001
(PID.TID 0000.0001) //       SOUTH: Tile = 000001, Process = 000001, Comm = put
(PID.TID 0000.0001) //                bi = 000001, bj = 000001
(PID.TID 0000.0001) //       NORTH: Tile = 000001, Process = 000001, Comm = put
(PID.TID 0000.0001) //                bi = 000001, bj = 000001
(PID.TID 0000.0001) // Tile number: 000002 (process no. = 000001)
(PID.TID 0000.0001) //        WEST: Tile = 000001, Process = 000001, Comm = put
(PID.TID 0000.0001) //                bi = 000001, bj = 000001
(PID.TID 0000.0001) //        EAST: Tile = 000001, Process = 000001, Comm = put
(PID.TID 0000.0001) //                bi = 000001, bj = 000001
(PID.TID 0000.0001) //       SOUTH: Tile = 000002, Process = 000001, Comm = put
(PID.TID 0000.0001) //                bi = 000002, bj = 000001
(PID.TID 0000.0001) //       NORTH: Tile = 000002, Process = 000001, Comm = put
(PID.TID 0000.0001) //                bi = 000002, bj = 000001
(PID.TID 0000.0001) 
(PID.TID 0000.0001) // =======================================================
(PID.TID 0000.0001) // Model parameter file "data"
(PID.TID 0000.0001) // =======================================================
(PID.TID 0000.0001) ># ====================
(PID.TID 0000.0001) ># | Model parameters |
(PID.TID 0000.0001) ># ====================
(PID.TID 0000.0001) >#
(PID.TID 0000.0001) ># Continuous equation parameters
(PID.TID 0000.0001) > &PARM01
(PID.TID 0000.0001) > tRef=289.6, 298.1, 314.5, 335.8, 437.4,
(PID.TID 0000.0001) > sRef=5*0.,
(PID.TID 0000.0001) >#viscAr=1.E3,
(PID.TID 0000.0001) > no_slip_sides=.FALSE.,
(PID.TID 0000.0001) > no_slip_bottom=.FALSE.,
(PID.TID 0000.0001) > buoyancyRelation='ATMOSPHERIC',
(PID.TID 0000.0001) > eosType='IDEALGAS',
(PID.TID 0000.0001) >#atm_Rq=0.6078E-3,
(PID.TID 0000.0001) > gravity=9.81,
(PID.TID 0000.0001) > rhonil=1.0,
(PID.TID 0000.0001) > rhoConst=1.0,
(PID.TID 0000.0001) > rhoConstFresh=1000.,
(PID.TID 0000.0001) > implicitFreeSurface=.TRUE.,
(PID.TID 0000.0001) > exactConserv=.TRUE.,
(PID.TID 0000.0001) >#uniformLin_PhiSurf=.FALSE.,
(PID.TID 0000.0001) > staggerTimeStep=.TRUE.,
(PID.TID 0000.0001) > readBinaryPrec=64,
(PID.TID 0000.0001) > writeBinaryPrec=64,
(PID.TID 0000.0001) > saltAdvScheme=3,
(PID.TID 0000.0001) > usePickupBeforeC54=.TRUE.,
(PID.TID 0000.0001) > &
(PID.TID 0000.0001) >
(PID.TID 0000.0001) ># Elliptic solver parameters
(PID.TID 0000.0001) > &PARM02
(PID.TID 0000.0001) > cg2dMaxIters=200,
(PID.TID 0000.0001) >#cg2dTargetResidual=1.E-12,
(PID.TID 0000.0001) > cg2dTargetResWunit=1.E-17,
(PID.TID 0000.0001) > &
(PID.TID 0000.0001) >
(PID.TID 0000.0001) ># Time stepping parameters
(PID.TID 0000.0001) > &PARM03
(PID.TID 0000.0001) > nIter0=51840,
(PID.TID 0000.0001) > nTimeSteps=10,
(PID.TID 0000.0001) >#endTime=155520000.,
(PID.TID 0000.0001) > deltaT=600.,
(PID.TID 0000.0001) > abEps=0.1,
(PID.TID 0000.0001) > pChkptFreq=2592000.,
(PID.TID 0000.0001) > forcing_In_AB=.FALSE.,
(PID.TID 0000.0001) > chkptFreq=0.,
(PID.TID 0000.0001) > dumpFreq=2592000.,
(PID.TID 0000.0001) > taveFreq=2592000.,
(PID.TID 0000.0001) >#monitorFreq=86400.,
(PID.TID 0000.0001) > monitorFreq=1.,
(PID.TID 0000.0001) > &
(PID.TID 0000.0001) >
(PID.TID 0000.0001) ># Gridding parameters
(PID.TID 0000.0001) > &PARM04
(PID.TID 0000.0001) > usingSphericalPolarGrid=.TRUE.,
(PID.TID 0000.0001) > delX=128*2.8125,
(PID.TID 0000.0001) > delY=23*2.8125,
(PID.TID 0000.0001) > delR=100.E2, 250.E2, 300.E2, 200.E2, 150.E2,
(PID.TID 0000.0001) > Ro_SeaLevel=1.E5,
(PID.TID 0000.0001) > groundAtK1=.TRUE.,
(PID.TID 0000.0001) > phiMin=-32.34375,
(PID.TID 0000.0001) > rSphere=6370.E3,
(PID.TID 0000.0001) > &
(PID.TID 0000.0001) >
(PID.TID 0000.0001) ># Input datasets
(PID.TID 0000.0001) > &PARM05
(PID.TID 0000.0001) > &
(PID.TID 0000.0001) 
(PID.TID 0000.0001) S/R INI_PARMS ; starts to read PARM01
(PID.TID 0000.0001) S/R INI_PARMS ; read PARM01 : OK
(PID.TID 0000.0001) S/R INI_PARMS ; starts to read PARM02
(PID.TID 0000.0001) S/R INI_PARMS ; read PARM02 : OK
(PID.TID 0000.0001) S/R INI_PARMS ; starts to read PARM03
(PID.TID 0000.0001) S/R INI_PARMS ; read PARM03 : OK
(PID.TID 0000.0001) S/R INI_PARMS ; starts to read PARM04
(PID.TID 0000.0001) S/R INI_PARMS ; read PARM04 : OK
(PID.TID 0000.0001) S/R INI_PARMS ; starts to read PARM05
(PID.TID 0000.0001) S/R INI_PARMS ; read PARM05 : OK
(PID.TID 0000.0001)  PACKAGES_BOOT: opening data.pkg
(PID.TID 0000.0001)  OPEN_COPY_DATA_FILE: opening file data.pkg
(PID.TID 0000.0001) // =======================================================
(PID.TID 0000.0001) // Parameter file "data.pkg"
(PID.TID 0000.0001) // =======================================================
(PID.TID 0000.0001) ># Packages
(PID.TID 0000.0001) > &PACKAGES
(PID.TID 0000.0001) > useAIM=.TRUE.,
(PID.TID 0000.0001) > useSHAP_FILT=.TRUE.,
(PID.TID 0000.0001) > &
(PID.TID 0000.0001) 
(PID.TID 0000.0001)  PACKAGES_BOOT: finished reading data.pkg
(PID.TID 0000.0001)  SHAP_FILT_READPARMS: opening data.shap
(PID.TID 0000.0001)  OPEN_COPY_DATA_FILE: opening file data.shap
(PID.TID 0000.0001) // =======================================================
(PID.TID 0000.0001) // Parameter file "data.shap"
(PID.TID 0000.0001) // =======================================================
(PID.TID 0000.0001) ># Shapiro Filter parameters
(PID.TID 0000.0001) > &SHAP_PARM01
(PID.TID 0000.0001) > shap_filt_uvStar=.FALSE.,
(PID.TID 0000.0001) > shap_filt_TrStagg=.TRUE.,
(PID.TID 0000.0001) > Shap_funct=2,
(PID.TID 0000.0001) > nShapT=4,
(PID.TID 0000.0001) > nShapUV=4,
(PID.TID 0000.0001) > nShapTrPhys=0,
(PID.TID 0000.0001) > nShapUVPhys=0,
(PID.TID 0000.0001) > Shap_Trtau=5400.,
(PID.TID 0000.0001) > Shap_uvtau=1800.,
(PID.TID 0000.0001) > Shap_noSlip=1.,
(PID.TID 0000.0001) >#Shap_diagFreq=2592000.,
(PID.TID 0000.0001) > &
(PID.TID 0000.0001) >
(PID.TID 0000.0001) 
(PID.TID 0000.0001)  SHAP_FILT_READPARMS: finished reading data.shap
(PID.TID 0000.0001) Shap_funct =   /* select Shapiro filter function */
(PID.TID 0000.0001)                       2
(PID.TID 0000.0001)     ;
(PID.TID 0000.0001) nShapT =   /* power of Shapiro filter for Temperat */
(PID.TID 0000.0001)                       4
(PID.TID 0000.0001)     ;
(PID.TID 0000.0001) nShapS =   /* power of Shapiro filter for Salinity */
(PID.TID 0000.0001)                       4
(PID.TID 0000.0001)     ;
(PID.TID 0000.0001) nShapUV =   /* power of Shapiro filter for momentum */
(PID.TID 0000.0001)                       4
(PID.TID 0000.0001)     ;
(PID.TID 0000.0001) nShapTrPhys =   /* power of physical-space filter (Tracer) */
(PID.TID 0000.0001)                       0
(PID.TID 0000.0001)     ;
(PID.TID 0000.0001) nShapUVPhys =   /* power of physical-space filter (Momentum) */
(PID.TID 0000.0001)                       0
(PID.TID 0000.0001)     ;
(PID.TID 0000.0001) Shap_Trtau =   /* time scale of Shapiro filter (Tracer) */
(PID.TID 0000.0001)                 5.400000000000000E+03
(PID.TID 0000.0001)     ;
(PID.TID 0000.0001) Shap_TrLength =   /* Length scale of Shapiro filter (Tracer) */
(PID.TID 0000.0001)                 0.000000000000000E+00
(PID.TID 0000.0001)     ;
(PID.TID 0000.0001) Shap_uvtau =   /* time scale of Shapiro filter (Momentum) */
(PID.TID 0000.0001)                 1.800000000000000E+03
(PID.TID 0000.0001)     ;
(PID.TID 0000.0001) Shap_uvLength =   /* Length scale of Shapiro filter (Momentum) */
(PID.TID 0000.0001)                 0.000000000000000E+00
(PID.TID 0000.0001)     ;
(PID.TID 0000.0001) Shap_noSlip =  /* No-slip parameter (0=Free-slip ; 1=No-slip)*/
(PID.TID 0000.0001)                 1.000000000000000E+00
(PID.TID 0000.0001)     ;
(PID.TID 0000.0001) Shap_diagFreq =   /* Frequency^-1 for diagnostic output (s)*/
(PID.TID 0000.0001)                 0.000000000000000E+00
(PID.TID 0000.0001)     ;
(PID.TID 0000.0001) %MON XC_max                       =   3.5859375000000E+02
(PID.TID 0000.0001) %MON XC_min                       =   1.4062500000000E+00
(PID.TID 0000.0001) %MON XC_mean                      =   1.8000000000000E+02
(PID.TID 0000.0001) %MON XC_sd                        =   1.0391987692599E+02
(PID.TID 0000.0001) %MON XG_max                       =   3.5718750000000E+02
(PID.TID 0000.0001) %MON XG_min                       =   2.8125000000000E+00
(PID.TID 0000.0001) %MON XG_mean                      =   1.8000000000000E+02
(PID.TID 0000.0001) %MON XG_sd                        =   1.0310795313651E+02
(PID.TID 0000.0001) %MON DXC_max                      =   3.1268664380261E+05
(PID.TID 0000.0001) %MON DXC_min                      =   2.6820028035446E+05
(PID.TID 0000.0001) %MON DXC_mean                     =   2.9637191437594E+05
(PID.TID 0000.0001) %MON DXC_sd                       =   1.4453062273565E+04
(PID.TID 0000.0001) %MON DXF_max                      =   3.1268664380261E+05
(PID.TID 0000.0001) %MON DXF_min                      =   2.6820028035446E+05
(PID.TID 0000.0001) %MON DXF_mean                     =   2.9637191437594E+05
(PID.TID 0000.0001) %MON DXF_sd                       =   1.4453062273565E+04
(PID.TID 0000.0001) %MON DXG_max                      =   3.1259246843155E+05
(PID.TID 0000.0001) %MON DXG_min                      =   2.6417442582260E+05
(PID.TID 0000.0001) %MON DXG_mean                     =   2.9628265269636E+05
(PID.TID 0000.0001) %MON DXG_sd                       =   1.4650049182775E+04
(PID.TID 0000.0001) %MON DXV_max                      =   3.1259246843155E+05
(PID.TID 0000.0001) %MON DXV_min                      =   2.6417442582260E+05
(PID.TID 0000.0001) %MON DXV_mean                     =   2.9628265269636E+05
(PID.TID 0000.0001) %MON DXV_sd                       =   1.4650049182775E+04
(PID.TID 0000.0001) %MON YC_max                       =   3.0937500000000E+01
(PID.TID 0000.0001) %MON YC_min                       =  -3.0937500000000E+01
(PID.TID 0000.0001) %MON YC_mean                      =   0.0000000000000E+00
(PID.TID 0000.0001) %MON YC_sd                        =   1.9075303077540E+01
(PID.TID 0000.0001) %MON YG_max                       =   2.9531250000000E+01
(PID.TID 0000.0001) %MON YG_min                       =  -3.2343750000000E+01
(PID.TID 0000.0001) %MON YG_mean                      =  -1.4062500000000E+00
(PID.TID 0000.0001) %MON YG_sd                        =   1.8656014445749E+01
(PID.TID 0000.0001) %MON DYC_max                      =   3.1268664380261E+05
(PID.TID 0000.0001) %MON DYC_min                      =   3.1268664380261E+05
(PID.TID 0000.0001) %MON DYC_mean                     =   3.1268664380260E+05
(PID.TID 0000.0001) %MON DYC_sd                       =   9.3714334070683E-09
(PID.TID 0000.0001) %MON DYF_max                      =   3.1268664380261E+05
(PID.TID 0000.0001) %MON DYF_min                      =   3.1268664380261E+05
(PID.TID 0000.0001) %MON DYF_mean                     =   3.1268664380260E+05
(PID.TID 0000.0001) %MON DYF_sd                       =   9.3714334070683E-09
(PID.TID 0000.0001) %MON DYG_max                      =   3.1268664380261E+05
(PID.TID 0000.0001) %MON DYG_min                      =   3.1268664380261E+05
(PID.TID 0000.0001) %MON DYG_mean                     =   3.1268664380260E+05
(PID.TID 0000.0001) %MON DYG_sd                       =   9.3714334070683E-09
(PID.TID 0000.0001) %MON DYU_max                      =   3.1268664380261E+05
(PID.TID 0000.0001) %MON DYU_min                      =   3.1268664380261E+05
(PID.TID 0000.0001) %MON DYU_mean                     =   3.1268664380260E+05
(PID.TID 0000.0001) %MON DYU_sd                       =   9.3714334070683E-09
(PID.TID 0000.0001) %MON RA_max                       =   9.7763121221868E+10
(PID.TID 0000.0001) %MON RA_min                       =   8.3854226074921E+10
(PID.TID 0000.0001) %MON RA_mean                      =   9.2662235391747E+10
(PID.TID 0000.0001) %MON RA_sd                        =   4.5188258183799E+09
(PID.TID 0000.0001) %MON RAW_max                      =   9.7763121221868E+10
(PID.TID 0000.0001) %MON RAW_min                      =   8.3854226074921E+10
(PID.TID 0000.0001) %MON RAW_mean                     =   9.2662235391747E+10
(PID.TID 0000.0001) %MON RAW_sd                       =   4.5188258183799E+09
(PID.TID 0000.0001) %MON RAS_max                      =   9.7733676797555E+10
(PID.TID 0000.0001) %MON RAS_min                      =   8.2595521514234E+10
(PID.TID 0000.0001) %MON RAS_mean                     =   9.2634327258878E+10
(PID.TID 0000.0001) %MON RAS_sd                       =   4.5804148099979E+09
(PID.TID 0000.0001) %MON RAZ_max                      =   9.7733676797555E+10
(PID.TID 0000.0001) %MON RAZ_min                      =   8.2595521514234E+10
(PID.TID 0000.0001) %MON RAZ_mean                     =   9.2634327258878E+10
(PID.TID 0000.0001) %MON RAZ_sd                       =   4.5804148099979E+09
(PID.TID 0000.0001) // =======================================================
(PID.TID 0000.0001) // Field Model R_low (ini_masks_etc) at iteration          1
(PID.TID 0000.0001) // CMIN =          1.000000000000000E+32
(PID.TID 0000.0001) // CMAX =         -1.000000000000000E+32
(PID.TID 0000.0001) // CINT =          0.000000000000000E+00
(PID.TID 0000.0001) // SYMBOLS (CMIN->CMAX): -abcdefghijklmnopqrstuvwxyz+
(PID.TID 0000.0001) //                  0.0: .
(PID.TID 0000.0001) // RANGE I (Lo:Hi:Step):(  -1: 130:   1)
(PID.TID 0000.0001) // RANGE J (Lo:Hi:Step):(  25:  -1:  -1)
(PID.TID 0000.0001) // RANGE K (Lo:Hi:Step):(   1:   1:   1)
(PID.TID 0000.0001) // =======================================================
(PID.TID 0000.0001) // =======================================================
(PID.TID 0000.0001) // END OF FIELD                                          =
(PID.TID 0000.0001) // =======================================================
(PID.TID 0000.0001) 
(PID.TID 0000.0001) // =======================================================
(PID.TID 0000.0001) // Field Model Ro_surf (ini_masks_etc) at iteration          1
(PID.TID 0000.0001) // CMIN =          1.000000000000000E+05
(PID.TID 0000.0001) // CMAX =          1.000000000000000E+05
(PID.TID 0000.0001) // CINT =          0.000000000000000E+00
(PID.TID 0000.0001) // SYMBOLS (CMIN->CMAX): -abcdefghijklmnopqrstuvwxyz+
(PID.TID 0000.0001) //                  0.0: .
(PID.TID 0000.0001) // RANGE I (Lo:Hi:Step):(  -1: 130:   1)
(PID.TID 0000.0001) // RANGE J (Lo:Hi:Step):(  25:  -1:  -1)
(PID.TID 0000.0001) // RANGE K (Lo:Hi:Step):(   1:   1:   1)
(PID.TID 0000.0001) // =======================================================
(PID.TID 0000.0001) // =======================================================
(PID.TID 0000.0001) // END OF FIELD                                          =
(PID.TID 0000.0001) // =======================================================
(PID.TID 0000.0001) 
(PID.TID 0000.0001) // =======================================================
(PID.TID 0000.0001) // Field hFacC at iteration          1
(PID.TID 0000.0001) // CMIN =          1.000000000000000E+00
(PID.TID 0000.0001) // CMAX =          1.000000000000000E+00
(PID.TID 0000.0001) // CINT =          0.000000000000000E+00
(PID.TID 0000.0001) // SYMBOLS (CMIN->CMAX): -abcdefghijklmnopqrstuvwxyz+
(PID.TID 0000.0001) //                  0.0: .
(PID.TID 0000.0001) // RANGE I (Lo:Hi:Step):(  -1: 130:   1)
(PID.TID 0000.0001) // RANGE J (Lo:Hi:Step):(  25:  -1:  -1)
(PID.TID 0000.0001) // RANGE K (Lo:Hi:Step):(   1:   1:   1)
(PID.TID 0000.0001) // =======================================================
(PID.TID 0000.0001) // =======================================================
(PID.TID 0000.0001) // END OF FIELD                                          =
(PID.TID 0000.0001) // =======================================================
(PID.TID 0000.0001) 
(PID.TID 0000.0001) // =======================================================
(PID.TID 0000.0001) // Field hFacW at iteration          1
(PID.TID 0000.0001) // CMIN =          1.000000000000000E+00
(PID.TID 0000.0001) // CMAX =          1.000000000000000E+00
(PID.TID 0000.0001) // CINT =          0.000000000000000E+00
(PID.TID 0000.0001) // SYMBOLS (CMIN->CMAX): -abcdefghijklmnopqrstuvwxyz+
(PID.TID 0000.0001) //                  0.0: .
(PID.TID 0000.0001) // RANGE I (Lo:Hi:Step):(  -1: 130:   1)
(PID.TID 0000.0001) // RANGE J (Lo:Hi:Step):(  25:  -1:  -1)
(PID.TID 0000.0001) // RANGE K (Lo:Hi:Step):(   1:   1:   1)
(PID.TID 0000.0001) // =======================================================
(PID.TID 0000.0001) // =======================================================
(PID.TID 0000.0001) // END OF FIELD                                          =
(PID.TID 0000.0001) // =======================================================
(PID.TID 0000.0001) 
(PID.TID 0000.0001) // =======================================================
(PID.TID 0000.0001) // Field hFacS at iteration          1
(PID.TID 0000.0001) // CMIN =          1.000000000000000E+00
(PID.TID 0000.0001) // CMAX =          1.000000000000000E+00
(PID.TID 0000.0001) // CINT =          0.000000000000000E+00
(PID.TID 0000.0001) // SYMBOLS (CMIN->CMAX): -abcdefghijklmnopqrstuvwxyz+
(PID.TID 0000.0001) //                  0.0: .
(PID.TID 0000.0001) // RANGE I (Lo:Hi:Step):(  -1: 130:   1)
(PID.TID 0000.0001) // RANGE J (Lo:Hi:Step):(  25:  -1:  -1)
(PID.TID 0000.0001) // RANGE K (Lo:Hi:Step):(   1:   1:   1)
(PID.TID 0000.0001) // =======================================================
(PID.TID 0000.0001) // =======================================================
(PID.TID 0000.0001) // END OF FIELD                                          =
(PID.TID 0000.0001) // =======================================================
(PID.TID 0000.0001) 
(PID.TID 0000.0001) 
(PID.TID 0000.0001) // ===================================
(PID.TID 0000.0001) // GAD parameters :
(PID.TID 0000.0001) // ===================================
(PID.TID 0000.0001) tempAdvScheme =   /* Temp. Horiz.Advection scheme selector */
(PID.TID 0000.0001)                       2
(PID.TID 0000.0001)     ;
(PID.TID 0000.0001) tempVertAdvScheme =   /* Temp. Vert. Advection scheme selector */
(PID.TID 0000.0001)                       2
(PID.TID 0000.0001)     ;
(PID.TID 0000.0001) tempMultiDimAdvec =   /* use Muti-Dim Advec method for Temp */
(PID.TID 0000.0001)                   F
(PID.TID 0000.0001)     ;
(PID.TID 0000.0001) tempAdamsBashforth =   /* use Adams-Bashforth time-stepping for Temp */
(PID.TID 0000.0001)                   T
(PID.TID 0000.0001)     ;
(PID.TID 0000.0001) saltAdvScheme =   /* Salt. Horiz.advection scheme selector */
(PID.TID 0000.0001)                       3
(PID.TID 0000.0001)     ;
(PID.TID 0000.0001) saltVertAdvScheme =   /* Salt. Vert. Advection scheme selector */
(PID.TID 0000.0001)                       3
(PID.TID 0000.0001)     ;
(PID.TID 0000.0001) saltMultiDimAdvec =   /* use Muti-Dim Advec method for Salt */
(PID.TID 0000.0001)                   F
(PID.TID 0000.0001)     ;
(PID.TID 0000.0001) saltAdamsBashforth =   /* use Adams-Bashforth time-stepping for Salt */
(PID.TID 0000.0001)                   T
(PID.TID 0000.0001)     ;
(PID.TID 0000.0001) // ===================================
- INPHYS: k,SIG, SIGH,   SIGL,   WVI(1),  WVI(2):
  1   0.0750   0.1500  -2.5903   0.8306   0.5757
  2   0.2500   0.3500  -1.3863   1.4427   0.4854
  3   0.5000   0.6500  -0.6931   2.2818   0.5987
  4   0.7750   0.9000  -0.2549   4.9116   0.7344
  5   0.9500   1.0000  -0.0513   0.0000   0.0377
- INPHYS: end setup WVI.
(PID.TID 0000.0001)  AIM_READ_PHYSPARMS: opening data.aimphys
(PID.TID 0000.0001)  OPEN_COPY_DATA_FILE: opening file data.aimphys
(PID.TID 0000.0001) // =======================================================
(PID.TID 0000.0001) // Parameter file "data.aimphys"
(PID.TID 0000.0001) // =======================================================
(PID.TID 0000.0001) ># AIM physics package parameters:
(PID.TID 0000.0001) >
(PID.TID 0000.0001) >C--   AIM interface parameter (namelist AIM_PARAMS):
(PID.TID 0000.0001) >#     aim_useFMsurfBC :: select surface B.C. from Franco Molteni
(PID.TID 0000.0001) >#     aim_useMMsurfFc :: select Monthly Mean surface forcing (e.g., NCEP)
(PID.TID 0000.0001) >#     aim_surfPotTemp :: surf.Temp input file is in Pot.Temp (aim_useMMsurfFc)
(PID.TID 0000.0001) >#     aim_energPrecip :: account for energy of precipitation (snow & rain temp)
(PID.TID 0000.0001) >#     aim_splitSIOsFx :: compute separately Sea-Ice & Ocean surf. Flux
(PID.TID 0000.0001) >#     aim_LandFile :: file name for Land fraction [0-1]
(PID.TID 0000.0001) >#     aim_MMsufx   :: sufix for all Monthly Mean surface forcing files
(PID.TID 0000.0001) >#     aim_MMsufxLength :: Length of sufix (Monthly Mean surf. forc. files)
(PID.TID 0000.0001) >#     aim_albFile  :: file name for Albedo input file   (F.M. surfBC)
(PID.TID 0000.0001) >#     aim_vegFile  :: file name for vegetation fraction (F.M. surfBC)
(PID.TID 0000.0001) >#     aim_sstFile  :: file name for  Sea.Surf.Temp      (F.M. surfBC)
(PID.TID 0000.0001) >#     aim_lstFile  :: file name for Land.Surf.Temp      (F.M. surfBC)
(PID.TID 0000.0001) >#     aim_oiceFile :: file name for Sea Ice fraction    (F.M. surfBC)
(PID.TID 0000.0001) >#     aim_snowFile :: file name for Snow depth          (F.M. surfBC)
(PID.TID 0000.0001) >#     aim_swcFile  :: file name for Soil Water content  (F.M. surfBC)
(PID.TID 0000.0001) >#     aim_dragStrato :: stratospheric-drag damping time scale (s)
(PID.TID 0000.0001) >#     aim_clrSkyDiag :: compute clear-sky radiation for diagnostics
(PID.TID 0000.0001) >#     aim_taveFreq :: Frequency^-1 for time-average output (s)
(PID.TID 0000.0001) >#     aim_diagFreq :: Frequency^-1 for diagnostic output (s)
(PID.TID 0000.0001) >#     aim_tendFreq :: Frequency^-1 for tendencies output (s)
(PID.TID 0000.0001) > &AIM_PARAMS
(PID.TID 0000.0001) >   aim_useFMsurfBC=.FALSE.,
(PID.TID 0000.0001) >   aim_useMMsurfFc=.FALSE.,
(PID.TID 0000.0001) > &
(PID.TID 0000.0001) >
(PID.TID 0000.0001) >#--   Physical constants
(PID.TID 0000.0001) >#       P0    = reference pressure                 [Pa=N/m2]
(PID.TID 0000.0001) >#       GG    = gravity accel.                     [m/s2]
(PID.TID 0000.0001) >#       RD    = gas constant for dry air           [J/kg/K]
(PID.TID 0000.0001) >#       CP    = specific heat at constant pressure [J/kg/K]
(PID.TID 0000.0001) >#       ALHC  = latent heat of condensation        [J/g]
(PID.TID 0000.0001) >#       ALHF  = latent heat of freezing            [J/g]
(PID.TID 0000.0001) >#       SBC   = Stefan-Boltzmann constant
(PID.TID 0000.0001) >#     rainCP  = heat capacity of liquid water      [J/g/K]
(PID.TID 0000.0001) >#     tFreeze = freezing temperature of pure water [K]
(PID.TID 0000.0001) >
(PID.TID 0000.0001) >#--   Constants for forcing fields (namelist AIM_PAR_FOR):
(PID.TID 0000.0001) >#      SOLC   = Solar constant (area averaged) in W/m^2
(PID.TID 0000.0001) >#      ALBSEA = Albedo over sea
(PID.TID 0000.0001) >#      ALBICE = Albedo over sea ice (for ice fraction = 1)
(PID.TID 0000.0001) >#      ALBSN  = Albedo over snow (for snow depth > SDALB)
(PID.TID 0000.0001) >#      SDALB  = Snow depth (mm water) corresponding to maximum albedo
(PID.TID 0000.0001) >#      SWCAP  = Soil wetness at field capacity (volume fraction)
(PID.TID 0000.0001) >#      SWWIL  = Soil wetness at wilting point  (volume fraction)
(PID.TID 0000.0001) >#      hSnowWetness :: snow depth (m) corresponding to maximum wetness
(PID.TID 0000.0001) > &AIM_PAR_FOR
(PID.TID 0000.0001) > &
(PID.TID 0000.0001) >
(PID.TID 0000.0001) >#--   Constants for surface fluxes (namelist AIM_PAR_SFL):
(PID.TID 0000.0001) >#      FWIND0 = ratio of near-sfc wind to lowest-level wind
(PID.TID 0000.0001) >#      FTEMP0 = weight for near-sfc temperature extrapolation (0-1) :
(PID.TID 0000.0001) >#               1 : linear extrapolation from two lowest levels
(PID.TID 0000.0001) >#               0 : constant potential temperature ( = lowest level)
(PID.TID 0000.0001) >#      FHUM0  = weight for near-sfc specific humidity extrapolation (0-1) :
(PID.TID 0000.0001) >#               1 : extrap. with constant relative hum. ( = lowest level)
(PID.TID 0000.0001) >#               0 : constant specific hum. ( = lowest level)
(PID.TID 0000.0001) >#      CDL    = drag coefficient for momentum over land
(PID.TID 0000.0001) >#      CDS    = drag coefficient for momentum over sea
(PID.TID 0000.0001) >#      CHL    = heat exchange coefficient over land
(PID.TID 0000.0001) >#      CHS    = heat exchange coefficient over sea
(PID.TID 0000.0001) >#      VGUST  = wind speed for sub-grid-scale gusts
(PID.TID 0000.0001) >#      CTDAY  = daily-cycle correction (dTskin/dSSRad)
(PID.TID 0000.0001) >#      DTHETA = Potential temp. gradient for stability correction
(PID.TID 0000.0001) >#      dTstab = potential temp. increment for stability function derivative
(PID.TID 0000.0001) >#      FSTAB  = Amplitude of stability correction (fraction)
(PID.TID 0000.0001) >#      HDRAG  = Height scale for orographic correction
(PID.TID 0000.0001) >#      FHDRAG = Amplitude of orographic correction (fraction)
(PID.TID 0000.0001) > &AIM_PAR_SFL
(PID.TID 0000.0001) > &
(PID.TID 0000.0001) >
(PID.TID 0000.0001) >#--   Convection constants (namelist AIM_PAR_CNV):
(PID.TID 0000.0001) >#      PSMIN  = minimum (norm.) sfc. pressure for the occurrence of convection
(PID.TID 0000.0001) >#      TRCNV  = time of relaxation (in hours) towards reference state
(PID.TID 0000.0001) >#      QBL    = specific hum. threshold in the boundary layer
(PID.TID 0000.0001) >#      RHBL   = relative hum. threshold in the boundary layer
(PID.TID 0000.0001) >#      RHIL   = rel. hum. threshold in intermed. layers for secondary mass flux
(PID.TID 0000.0001) >#      ENTMAX = max. entrainment as a fraction of cloud-base mass flux
(PID.TID 0000.0001) >#      SMF    = ratio between secondary and primary mass flux at cloud-base
(PID.TID 0000.0001) > &AIM_PAR_CNV
(PID.TID 0000.0001) > &
(PID.TID 0000.0001) >
(PID.TID 0000.0001) >#--   Constants for large-scale condensation (namelist AIM_PAR_LSC):
(PID.TID 0000.0001) >#      TRLSC  = Relaxation time (in hours) for specific humidity
(PID.TID 0000.0001) >#      RHLSC  = Maximum relative humidity threshold (at sigma=1)
(PID.TID 0000.0001) >#      DRHLSC = Vertical range of relative humidity threshold
(PID.TID 0000.0001) >#      QSMAX  = used to define the maximum latent heat release
(PID.TID 0000.0001) > &AIM_PAR_LSC
(PID.TID 0000.0001) > &
(PID.TID 0000.0001) >
(PID.TID 0000.0001) >#--   Radiation constants (namelist AIM_PAR_RAD):
(PID.TID 0000.0001) >#      RHCL1  = relative hum. corresponding to cloud cover = 0
(PID.TID 0000.0001) >#      RHCL2  = relative hum. corresponding to cloud cover = 1
(PID.TID 0000.0001) >#      QACL1  = specific hum. threshold for cloud cover in the upper troposphere
(PID.TID 0000.0001) >#      QACL2  = specific hum. threshold for cloud cover in the upper troposphere
(PID.TID 0000.0001) >#      ALBCL  = cloud albedo (for cloud cover = 1)
(PID.TID 0000.0001) >#      EPSSW  = fraction of incoming solar radiation absorbed by ozone
(PID.TID 0000.0001) >#      EPSLW  = fraction of surface LW radiation emitted directly to space
(PID.TID 0000.0001) >#      EMISFC = longwave surface emissivity
(PID.TID 0000.0001) >#--:            shortwave absorptivities (for dp = 10^5 Pa) :
(PID.TID 0000.0001) >#      ABSDRY = abs. of dry air      (visible band)
(PID.TID 0000.0001) >#      ABSAER = abs. of aerosols     (visible band)
(PID.TID 0000.0001) >#      ABSWV1 = abs. of water vapour (visible band, for dq = 1 g/kg)
(PID.TID 0000.0001) >#      ABSWV2 = abs. of water vapour (near IR band, for dq = 1 g/kg)
(PID.TID 0000.0001) >#      ABSCL1 = abs. of clouds       (visible band, constant term)
(PID.TID 0000.0001) >#      ABSCL2 = abs. of clouds       (visible band, for dw = 1 g/kg)
(PID.TID 0000.0001) >#--:            longwave absorptivities (per dp = 10^5 Pa) :
(PID.TID 0000.0001) >#      ABLWIN = abs. of air in "window" band
(PID.TID 0000.0001) >#      ABLCO2 = abs. of air in CO2 band
(PID.TID 0000.0001) >#      ABLWV1 = abs. of water vapour in H2O band 1 (weak),   for dq = 1 g/kg
(PID.TID 0000.0001) >#      ABLWV2 = abs. of water vapour in H2O band 2 (strong), for dq = 1 g/kg
(PID.TID 0000.0001) >#      ABLCL1 = abs. of clouds       in "window" band,       constant term
(PID.TID 0000.0001) >#      ABLCL2 = abs. of clouds       in "window" band,       for dw = 1 g/kg
(PID.TID 0000.0001) > &AIM_PAR_RAD
(PID.TID 0000.0001) > &
(PID.TID 0000.0001) >
(PID.TID 0000.0001) >#--   Constants for vertical dif. and sh. conv. (namelist AIM_PAR_VDI):
(PID.TID 0000.0001) >#      TRSHC  = relaxation time (in hours) for shallow convection
(PID.TID 0000.0001) >#      TRVDI  = relaxation time (in hours) for moisture diffusion
(PID.TID 0000.0001) >#      TRVDS  = relaxation time (in hours) for super-adiab. conditions
(PID.TID 0000.0001) >#      RHGRAD = maximum gradient of relative humidity (d_RH/d_sigma)
(PID.TID 0000.0001) >#      SEGRAD = minimum gradient of dry static energy (d_DSE/d_phi)
(PID.TID 0000.0001) > &AIM_PAR_VDI
(PID.TID 0000.0001) > &
(PID.TID 0000.0001) >
(PID.TID 0000.0001) 
(PID.TID 0000.0001)  AIM_READ_PHYSPARMS: finished reading data.aimphys
(PID.TID 0000.0001) 
(PID.TID 0000.0001) // ===================================
(PID.TID 0000.0001) // AIM physics parameters :
(PID.TID 0000.0001) // ===================================
(PID.TID 0000.0001) useLand =   /* use Land package for surf.BC over land  */
(PID.TID 0000.0001)                   F
(PID.TID 0000.0001)     ;
(PID.TID 0000.0001) aim_useFMsurfBC =   /* F.Molteni surf. BC scheme on/off flag */
(PID.TID 0000.0001)                   F
(PID.TID 0000.0001)     ;
(PID.TID 0000.0001) aim_useMMsurfFc =   /* Monthly Mean surf. Forcing on/off flag */
(PID.TID 0000.0001)                   F
(PID.TID 0000.0001)     ;
(PID.TID 0000.0001) aim_surfPotTemp =   /* Surf Temp file in Pot.Temp on/off flag */
(PID.TID 0000.0001)                   F
(PID.TID 0000.0001)     ;
(PID.TID 0000.0001) aim_energPrecip = /* account for energy of precip. on/off flag */
(PID.TID 0000.0001)                   F
(PID.TID 0000.0001)     ;
(PID.TID 0000.0001) aim_splitSIOsFx = /* separate Sea-Ice & Ocean Flux on/off flag */
(PID.TID 0000.0001)                   F
(PID.TID 0000.0001)     ;
(PID.TID 0000.0001) aim_dragStrato= /* stratospheric-drag damping time scale (s) */
(PID.TID 0000.0001)                 0.000000000000000E+00
(PID.TID 0000.0001)     ;
(PID.TID 0000.0001) aim_clrSkyDiag = /* do clear-sky radiation diagnostics */
(PID.TID 0000.0001)                   F
(PID.TID 0000.0001)     ;
(PID.TID 0000.0001) aim_taveFreq =   /* Frequency^-1 for time-Aver. output (s) */
(PID.TID 0000.0001)                 2.592000000000000E+06
(PID.TID 0000.0001)     ;
(PID.TID 0000.0001) aim_diagFreq =   /* Frequency^-1 for diagnostic output (s) */
(PID.TID 0000.0001)                 2.592000000000000E+06
(PID.TID 0000.0001)     ;
(PID.TID 0000.0001) aim_tendFreq =   /* Frequency^-1 for tendencies output (s) */
(PID.TID 0000.0001)                 0.000000000000000E+00
(PID.TID 0000.0001)     ;
(PID.TID 0000.0001) AIM_FOR:   SOLC =   /* Solar constant (area averaged) in W/m2 */
(PID.TID 0000.0001)                 3.420000000000000E+02
(PID.TID 0000.0001)     ;
(PID.TID 0000.0001) AIM_FOR: ALBSEA =   /* Albedo over sea [0-1]      */
(PID.TID 0000.0001)                 7.000000000000001E-02
(PID.TID 0000.0001)     ;
(PID.TID 0000.0001) AIM_FOR: ALBICE =   /* Albedo over sea ice (for ice fraction =1) */
(PID.TID 0000.0001)                 6.000000000000000E-01
(PID.TID 0000.0001)     ;
(PID.TID 0000.0001) AIM_FOR:  ALBSN =   /* Albedo over snow (for snow depth > SDALB) */
(PID.TID 0000.0001)                 6.000000000000000E-01
(PID.TID 0000.0001)     ;
(PID.TID 0000.0001) AIM_FOR:  SDALB =   /* Snow depth (mm H2O) corresp. maximum albedo */
(PID.TID 0000.0001)                 6.000000000000000E+01
(PID.TID 0000.0001)     ;
(PID.TID 0000.0001) AIM_FOR:  SWCAP =   /* Soil wetness at field capacity (Vol.fract.) */
(PID.TID 0000.0001)                 3.000000000000000E-01
(PID.TID 0000.0001)     ;
(PID.TID 0000.0001) AIM_FOR:  SWWIL =   /* Soil wetness at wilting point  (Vol.fract.) */
(PID.TID 0000.0001)                 1.700000000000000E-01
(PID.TID 0000.0001)     ;
(PID.TID 0000.0001) AIM_FOR: hSnowWetness=   /* snow depth corresp. maximum wetness (m) */
(PID.TID 0000.0001)                 1.000000000000000E-02
(PID.TID 0000.0001)     ;
(PID.TID 0000.0001) AIM_SFL: FWIND0 =   /* ratio of near-sfc wind to lowest-level wind */
(PID.TID 0000.0001)                 6.000000000000000E-01
(PID.TID 0000.0001)     ;
(PID.TID 0000.0001) AIM_SFL: FTEMP0 =  /* weight for near-sfc temp. extrapolation (0-1)*/
(PID.TID 0000.0001)                 1.000000000000000E+00
(PID.TID 0000.0001)     ;
(PID.TID 0000.0001) AIM_SFL:  FHUM0 =  /* weight for near-sfc spec.humid. extrap. (0-1)*/
(PID.TID 0000.0001)                 1.000000000000000E+00
(PID.TID 0000.0001)     ;
(PID.TID 0000.0001) AIM_SFL:    CDL =   /* drag coefficient for momentum over land */
(PID.TID 0000.0001)                 1.800000000000000E-03
(PID.TID 0000.0001)     ;
(PID.TID 0000.0001) AIM_SFL:    CDS =   /* drag coefficient for momentum over sea  */
(PID.TID 0000.0001)                 8.000000000000000E-04
(PID.TID 0000.0001)     ;
(PID.TID 0000.0001) AIM_SFL:    CHL =   /* heat exchange coefficient over land */
(PID.TID 0000.0001)                 1.200000000000000E-03
(PID.TID 0000.0001)     ;
(PID.TID 0000.0001) AIM_SFL:    CHS =   /* heat exchange coefficient over sea  */
(PID.TID 0000.0001)                 8.000000000000000E-04
(PID.TID 0000.0001)     ;
(PID.TID 0000.0001) AIM_SFL:  VGUST =   /* wind speed [m/s] for sub-grid-scale gusts */
(PID.TID 0000.0001)                 5.000000000000000E+00
(PID.TID 0000.0001)     ;
(PID.TID 0000.0001) AIM_SFL:  CTDAY =   /* daily-cycle correction (dTskin/dSSRad) */
(PID.TID 0000.0001)                 1.000000000000000E-02
(PID.TID 0000.0001)     ;
(PID.TID 0000.0001) AIM_SFL: DTHETA =   /* Pot.Temp. gradient for stability correction */
(PID.TID 0000.0001)                 3.000000000000000E+00
(PID.TID 0000.0001)     ;
(PID.TID 0000.0001) AIM_SFL: dTstab =   /* Pot.Temp. increment for stab.funct. derivative */
(PID.TID 0000.0001)                 1.000000000000000E+00
(PID.TID 0000.0001)     ;
(PID.TID 0000.0001) AIM_SFL:  FSTAB =   /* Amplitude of stability correction (fract.) */
(PID.TID 0000.0001)                 6.700000000000000E-01
(PID.TID 0000.0001)     ;
(PID.TID 0000.0001) AIM_SFL:  HDRAG =   /* Height scale for orographic correction */
(PID.TID 0000.0001)                 2.000000000000000E+03
(PID.TID 0000.0001)     ;
(PID.TID 0000.0001) AIM_SFL: FHDRAG =   /* Amplitude of orographic correction (fract.)*/
(PID.TID 0000.0001)                 8.000000000000000E-01
(PID.TID 0000.0001)     ;
(PID.TID 0000.0001) AIM_CNV:  PSMIN =   /* min norm.sfc.P. for occurrence of convect. */
(PID.TID 0000.0001)                 7.000000000000000E-01
(PID.TID 0000.0001)     ;
(PID.TID 0000.0001) AIM_CNV:  TRCNV =   /* time of relaxation [h] towards ref state */
(PID.TID 0000.0001)                 6.000000000000000E+00
(PID.TID 0000.0001)     ;
(PID.TID 0000.0001) AIM_CNV:    QBL =   /* specific hum. threshold in the Bound.layer */
(PID.TID 0000.0001)                 1.500000000000000E+01
(PID.TID 0000.0001)     ;
(PID.TID 0000.0001) AIM_CNV:   RHBL =   /* relative hum. threshold in the Bound.layer */
(PID.TID 0000.0001)                 8.000000000000000E-01
(PID.TID 0000.0001)     ;
(PID.TID 0000.0001) AIM_CNV:   RHIL =   /* rel.hum. threshold (intern) for 2nd mass.Flx*/
(PID.TID 0000.0001)                 7.000000000000000E-01
(PID.TID 0000.0001)     ;
(PID.TID 0000.0001) AIM_CNV: ENTMAX =   /* time of relaxation [h] towards neutral eq. */
(PID.TID 0000.0001)                 5.000000000000000E-01
(PID.TID 0000.0001)     ;
(PID.TID 0000.0001) AIM_CNV:    SMF =   /* ratio 2ndary/primary mass.Flx at cloud-base*/
(PID.TID 0000.0001)                 5.000000000000000E-01
(PID.TID 0000.0001)     ;
(PID.TID 0000.0001) AIM_LSC:  TRLSC =   /* relaxation time [h] for supersat. spec.hum. */
(PID.TID 0000.0001)                 4.000000000000000E+00
(PID.TID 0000.0001)     ;
(PID.TID 0000.0001) AIM_LSC:  RHLSC =   /* Max rel.humidity threshold (at sigma=1) */
(PID.TID 0000.0001)                 9.000000000000000E-01
(PID.TID 0000.0001)     ;
(PID.TID 0000.0001) AIM_LSC: DRHLSC =   /* Vertical range of rel.humidity threshold */
(PID.TID 0000.0001)                 1.000000000000000E-01
(PID.TID 0000.0001)     ;
(PID.TID 0000.0001) AIM_LSC:  QSMAX =   /* Define the maximum latent heat release */
(PID.TID 0000.0001)                 5.000000000000000E+01
(PID.TID 0000.0001)     ;
(PID.TID 0000.0001) AIM_RAD:  RHCL1 =   /*  rel.hum. corresponding to cloud cover = 0 */
(PID.TID 0000.0001)                 4.500000000000000E-01
(PID.TID 0000.0001)     ;
(PID.TID 0000.0001) AIM_RAD:  RHCL2 =   /*  rel.hum. corresponding to cloud cover = 1 */
(PID.TID 0000.0001)                 8.500000000000000E-01
(PID.TID 0000.0001)     ;
(PID.TID 0000.0001) AIM_RAD:  QACL1 =   /* spec.hum. threshold for cloud, upper trop. */
(PID.TID 0000.0001)                 1.000000000000000E-01
(PID.TID 0000.0001)     ;
(PID.TID 0000.0001) AIM_RAD:  QACL2 =   /* spec.hum. threshold for cloud, upper trop. */
(PID.TID 0000.0001)                 1.000000000000000E+00
(PID.TID 0000.0001)     ;
(PID.TID 0000.0001) AIM_RAD:  ALBCL =   /*  cloud albedo (for cloud cover = 1) */
(PID.TID 0000.0001)                 4.000000000000000E-01
(PID.TID 0000.0001)     ;
(PID.TID 0000.0001) AIM_RAD:  EPSSW =   /*  fract. of inc.solar rad. absorbed by ozone */
(PID.TID 0000.0001)                 1.500000000000000E-02
(PID.TID 0000.0001)     ;
(PID.TID 0000.0001) AIM_RAD:  EPSLW =   /*  fract. of sfc LW emitted directly to space */
(PID.TID 0000.0001)                 0.000000000000000E+00
(PID.TID 0000.0001)     ;
(PID.TID 0000.0001) AIM_RAD: EMISFC =   /*  longwave surface emissivity */
(PID.TID 0000.0001)                 9.800000000000000E-01
(PID.TID 0000.0001)     ;
(PID.TID 0000.0001)  AIM_RAD : ShortWave absorptivities (for dp = 10^5 Pa) :
(PID.TID 0000.0001) AIM_RAD: ABSDRY =   /* abs. of dry air (visible band) */
(PID.TID 0000.0001)                 3.300000000000000E-02
(PID.TID 0000.0001)     ;
(PID.TID 0000.0001) AIM_RAD: ABSAER =   /* abs. of aerosols (visible band) */
(PID.TID 0000.0001)                 3.300000000000000E-02
(PID.TID 0000.0001)     ;
(PID.TID 0000.0001) AIM_RAD: ABSWV1 =   /* abs. of water vap. (vis. band)(/dq, 1g/kg) */
(PID.TID 0000.0001)                 2.200000000000000E-02
(PID.TID 0000.0001)     ;
(PID.TID 0000.0001) AIM_RAD: ABSWV2 =   /* abs. of water vap.(near IR bd)(/dq, 1g/kg) */
(PID.TID 0000.0001)                 1.500000000000000E+01
(PID.TID 0000.0001)     ;
(PID.TID 0000.0001) AIM_RAD: ABSCL1 =   /* abs. of clouds (vis.band)(constant term) */
(PID.TID 0000.0001)                 0.000000000000000E+00
(PID.TID 0000.0001)     ;
(PID.TID 0000.0001) AIM_RAD: ABSCL2 =   /* abs. of clouds (vis.band) (/dw, 1g/kg) */
(PID.TID 0000.0001)                 1.000000000000000E-02
(PID.TID 0000.0001)     ;
(PID.TID 0000.0001) AIM_RAD: ABLWIN =   /* abs. of air in "window" band */
(PID.TID 0000.0001)                 7.000000000000000E-01
(PID.TID 0000.0001)     ;
(PID.TID 0000.0001) AIM_RAD: ABLCO2 =   /* abs. of air in CO2 band */
(PID.TID 0000.0001)                 4.000000000000000E+00
(PID.TID 0000.0001)     ;
(PID.TID 0000.0001) AIM_RAD: ABLWV1 =   /* abs. of Water vap. H2O bd-1(weak)(/dq,1g/kg)*/
(PID.TID 0000.0001)                 7.000000000000000E-01
(PID.TID 0000.0001)     ;
(PID.TID 0000.0001) AIM_RAD: ABLWV2 =   /* abs. of W. vap., H2O bd-2(strong)(/dq,1g/kg)*/
(PID.TID 0000.0001)                 5.000000000000000E+01
(PID.TID 0000.0001)     ;
(PID.TID 0000.0001) AIM_RAD: ABLCL1 =   /* abs. of clouds in window band (const term) */
(PID.TID 0000.0001)                 1.200000000000000E+01
(PID.TID 0000.0001)     ;
(PID.TID 0000.0001) AIM_RAD: ABLCL2 =   /* abs. of clouds in window band (/dw, 1g/kg) */
(PID.TID 0000.0001)                 0.000000000000000E+00
(PID.TID 0000.0001)     ;
(PID.TID 0000.0001) AIM_VDI:  TRSHC =   /* relaxation time [h] for shallow convection */
(PID.TID 0000.0001)                 2.400000000000000E+01
(PID.TID 0000.0001)     ;
(PID.TID 0000.0001) AIM_VDI:  TRVDI =   /* relaxation time [h] for moisture diffusion */
(PID.TID 0000.0001)                 4.000000000000000E+01
(PID.TID 0000.0001)     ;
(PID.TID 0000.0001) AIM_VDI:  TRVDS =   /* relaxation time [h] for super-adiab. cond. */
(PID.TID 0000.0001)                 5.000000000000000E+00
(PID.TID 0000.0001)     ;
(PID.TID 0000.0001) AIM_VDI: RHGRAD =   /* max gradient of rel.humidity (d_RH/d_sigma)*/
(PID.TID 0000.0001)                 5.000000000000000E-01
(PID.TID 0000.0001)     ;
(PID.TID 0000.0001) AIM_VDI: RHGRAD =   /* max grad. of dry static Energy(d_DSE/d_phi)*/
(PID.TID 0000.0001)                 5.000000000000000E-01
(PID.TID 0000.0001)     ;
INI_P_GROUND: PhiRef/g [m] at Center (integer) and Interface (half-int.) levels:
  K=  0.5  ;  r=  100000.0  ;  phiRef/g=       0.000
  K=  1.0  ;  r=   95000.0  ;  phiRef/g=     431.199
  K=  1.5  ;  r=   90000.0  ;  phiRef/g=    1256.487
  K=  2.0  ;  r=   77500.0  ;  phiRef/g=    2105.998
  K=  2.5  ;  r=   65000.0  ;  phiRef/g=    3775.246
  K=  3.0  ;  r=   50000.0  ;  phiRef/g=    5536.327
  K=  3.5  ;  r=   35000.0  ;  phiRef/g=    7908.298
  K=  4.0  ;  r=   25000.0  ;  phiRef/g=   10440.915
  K=  4.5  ;  r=   15000.0  ;  phiRef/g=   13806.721
  K=  5.0  ;  r=    7500.0  ;  phiRef/g=   18190.889
  K=  5.5  ;  r=       0.0  ;  phiRef/g=   39547.504
(PID.TID 0000.0001) %MON fCori_max                    =   7.4773213164249E-05
(PID.TID 0000.0001) %MON fCori_min                    =  -7.4773213164249E-05
(PID.TID 0000.0001) %MON fCori_mean                   =   3.8501497602468E-23
(PID.TID 0000.0001) %MON fCori_sd                     =   4.6907817211331E-05
(PID.TID 0000.0001) %MON fCoriG_max                   =   7.1689136096147E-05
(PID.TID 0000.0001) %MON fCoriG_min                   =  -7.7812249644691E-05
(PID.TID 0000.0001) %MON fCoriG_mean                  =  -3.3831412888996E-06
(PID.TID 0000.0001) %MON fCoriG_sd                    =   4.5863229796663E-05
(PID.TID 0000.0001) %MON fCoriCos_max                 =   1.4544410433286E-04
(PID.TID 0000.0001) %MON fCoriCos_min                 =   1.2475156944216E-04
(PID.TID 0000.0001) %MON fCoriCos_mean                =   1.3785541688514E-04
(PID.TID 0000.0001) %MON fCoriCos_sd                  =   6.7227454031353E-06
(PID.TID 0000.0001) // CG2D normalisation factor =          0.8577286100002720669113754E-05
(PID.TID 0000.0001) 
 ini_cg2d: sumArea,cg2dTolerance =  2.72797620993304E+14  3.89977207109946E-11
(PID.TID 0000.0001) CONFIG_CHECK: OK
(PID.TID 0000.0001) // =======================================================
(PID.TID 0000.0001) // Model configuration
(PID.TID 0000.0001) // =======================================================
(PID.TID 0000.0001) //
(PID.TID 0000.0001) // "Physical" paramters ( PARM01 in namelist )
(PID.TID 0000.0001) //
(PID.TID 0000.0001) buoyancyRelation = ATMOSPHERIC
(PID.TID 0000.0001) fluidIsAir  =  /* fluid major constituent is Air */
(PID.TID 0000.0001)                   T
(PID.TID 0000.0001)     ;
(PID.TID 0000.0001) fluidIsWater=  /* fuild major constituent is Water */
(PID.TID 0000.0001)                   F
(PID.TID 0000.0001)     ;
(PID.TID 0000.0001) usingPCoords =  /* use p (or p*) vertical coordinate */
(PID.TID 0000.0001)                   T
(PID.TID 0000.0001)     ;
(PID.TID 0000.0001) usingZCoords =  /* use z (or z*) vertical coordinate */
(PID.TID 0000.0001)                   F
(PID.TID 0000.0001)     ;
(PID.TID 0000.0001) tRef =   /* Reference temperature profile ( oC or oK ) */
(PID.TID 0000.0001)                 2.896000000000000E+02,      /* K =  1 */
(PID.TID 0000.0001)                 2.981000000000000E+02,      /* K =  2 */
(PID.TID 0000.0001)                 3.145000000000000E+02,      /* K =  3 */
(PID.TID 0000.0001)                 3.358000000000000E+02,      /* K =  4 */
(PID.TID 0000.0001)                 4.374000000000000E+02       /* K =  5 */
(PID.TID 0000.0001)     ;
(PID.TID 0000.0001) sRef =   /* Reference salinity profile ( ppt ) */
(PID.TID 0000.0001)     5 @  0.000000000000000E+00              /* K =  1:  5 */
(PID.TID 0000.0001)     ;
(PID.TID 0000.0001) viscAh =   /* Lateral eddy viscosity ( m^2/s ) */
(PID.TID 0000.0001)                 0.000000000000000E+00
(PID.TID 0000.0001)     ;
(PID.TID 0000.0001) viscAhMax =   /* Maximum lateral eddy viscosity ( m^2/s ) */
(PID.TID 0000.0001)                 1.000000000000000E+21
(PID.TID 0000.0001)     ;
(PID.TID 0000.0001) viscAhGrid =   /* Grid dependent lateral eddy viscosity ( non-dim. ) */
(PID.TID 0000.0001)                 0.000000000000000E+00
(PID.TID 0000.0001)     ;
(PID.TID 0000.0001) viscC2leith =   /* Leith harmonic viscosity factor ( non-dom. ) */
(PID.TID 0000.0001)                 0.000000000000000E+00
(PID.TID 0000.0001)     ;
(PID.TID 0000.0001) viscA4 =   /* Lateral biharmonic viscosity ( m^4/s ) */
(PID.TID 0000.0001)                 0.000000000000000E+00
(PID.TID 0000.0001)     ;
(PID.TID 0000.0001) viscA4Max =   /* Maximum biharmonic viscosity ( m^2/s ) */
(PID.TID 0000.0001)                 1.000000000000000E+21
(PID.TID 0000.0001)     ;
(PID.TID 0000.0001) viscA4Grid =   /* Grid dependent biharmonic viscosity ( non-dim. ) */
(PID.TID 0000.0001)                 0.000000000000000E+00
(PID.TID 0000.0001)     ;
(PID.TID 0000.0001) viscC4leith =   /* Leith biharmonic viscosity factor ( non-dom. ) */
(PID.TID 0000.0001)                 0.000000000000000E+00
(PID.TID 0000.0001)     ;
(PID.TID 0000.0001) no_slip_sides =  /* Viscous BCs: No-slip sides */
(PID.TID 0000.0001)                   F
(PID.TID 0000.0001)     ;
(PID.TID 0000.0001) viscAr =   /* Vertical eddy viscosity ( units of r^2/s ) */
(PID.TID 0000.0001)                 0.000000000000000E+00
(PID.TID 0000.0001)     ;
(PID.TID 0000.0001) no_slip_bottom =  /* Viscous BCs: No-slip bottom */
(PID.TID 0000.0001)                   F
(PID.TID 0000.0001)     ;
(PID.TID 0000.0001) diffKhT =   /* Laplacian diffusion of heat laterally ( m^2/s ) */
(PID.TID 0000.0001)                 0.000000000000000E+00
(PID.TID 0000.0001)     ;
(PID.TID 0000.0001) diffK4T =   /* Bihaarmonic diffusion of heat laterally ( m^4/s ) */
(PID.TID 0000.0001)                 0.000000000000000E+00
(PID.TID 0000.0001)     ;
(PID.TID 0000.0001) diffKhS =   /* Laplacian diffusion of salt laterally ( m^2/s ) */
(PID.TID 0000.0001)                 0.000000000000000E+00
(PID.TID 0000.0001)     ;
(PID.TID 0000.0001) diffK4S =   /* Bihaarmonic diffusion of salt laterally ( m^4/s ) */
(PID.TID 0000.0001)                 0.000000000000000E+00
(PID.TID 0000.0001)     ;
(PID.TID 0000.0001) diffKrNrT = /* vertical profile of vertical diffusion of Temp ( m^2/s )*/
(PID.TID 0000.0001)     5 @  0.000000000000000E+00              /* K =  1:  5 */
(PID.TID 0000.0001)     ;
(PID.TID 0000.0001) diffKrNrS = /* vertical profile of vertical diffusion of Salt ( m^2/s )*/
(PID.TID 0000.0001)     5 @  0.000000000000000E+00              /* K =  1:  5 */
(PID.TID 0000.0001)     ;
(PID.TID 0000.0001) diffKrBL79surf =   /* Surface diffusion for Bryan and Lewis 1979 ( m^2/s ) */
(PID.TID 0000.0001)                 0.000000000000000E+00
(PID.TID 0000.0001)     ;
(PID.TID 0000.0001) diffKrBL79deep =   /* Deep diffusion for Bryan and Lewis 1979 ( m^2/s ) */
(PID.TID 0000.0001)                 0.000000000000000E+00
(PID.TID 0000.0001)     ;
(PID.TID 0000.0001) diffKrBL79scl =   /* Depth scale for Bryan and Lewis 1979 ( m ) */
(PID.TID 0000.0001)                 2.000000000000000E+02
(PID.TID 0000.0001)     ;
(PID.TID 0000.0001) diffKrBL79Ho =   /* Turning depth for Bryan and Lewis 1979 ( m ) */
(PID.TID 0000.0001)                -2.000000000000000E+03
(PID.TID 0000.0001)     ;
(PID.TID 0000.0001)  Equation of State : eosType = IDEALG
(PID.TID 0000.0001) tAlpha =   /* Linear EOS thermal expansion coefficient ( 1/degree ) */
(PID.TID 0000.0001)                 1.234567000000000E+05
(PID.TID 0000.0001)     ;
(PID.TID 0000.0001) sBeta =   /* Linear EOS haline contraction coefficient ( 1/ppt ) */
(PID.TID 0000.0001)                 1.234567000000000E+05
(PID.TID 0000.0001)     ;
(PID.TID 0000.0001) atm_Rd =  /* gas constant for dry air ( J/kg/K ) */
(PID.TID 0000.0001)                 2.868571428571428E+02
(PID.TID 0000.0001)     ;
(PID.TID 0000.0001) atm_Cp =  /* specific heat (Cp) of dry air ( J/kg/K ) */
(PID.TID 0000.0001)                 1.004000000000000E+03
(PID.TID 0000.0001)     ;
(PID.TID 0000.0001) atm_kappa =  /* kappa (=Rd/Cp ) of dry air */
(PID.TID 0000.0001)                 2.857142857142857E-01
(PID.TID 0000.0001)     ;
(PID.TID 0000.0001) atm_Rq = /* water vap. specific vol. anomaly relative to dry air */
(PID.TID 0000.0001)                 0.000000000000000E+00
(PID.TID 0000.0001)     ;
(PID.TID 0000.0001) atm_Po =  /* standard reference pressure ( Pa ) */
(PID.TID 0000.0001)                 1.000000000000000E+05
(PID.TID 0000.0001)     ;
(PID.TID 0000.0001) integr_GeoPot =  /* select how the geopotential is integrated */
(PID.TID 0000.0001)                       2
(PID.TID 0000.0001)     ;
(PID.TID 0000.0001) selectFindRoSurf=  /* select how Surf.Ref. pressure is defined */
(PID.TID 0000.0001)                       0
(PID.TID 0000.0001)     ;
(PID.TID 0000.0001) rhonil =   /* Reference density ( kg/m^3 ) */
(PID.TID 0000.0001)                 1.000000000000000E+00
(PID.TID 0000.0001)     ;
(PID.TID 0000.0001) rhoConst =   /* Reference density ( kg/m^3 ) */
(PID.TID 0000.0001)                 1.000000000000000E+00
(PID.TID 0000.0001)     ;
(PID.TID 0000.0001) rhoConstFresh =   /* Reference density ( kg/m^3 ) */
(PID.TID 0000.0001)                 1.000000000000000E+03
(PID.TID 0000.0001)     ;
(PID.TID 0000.0001) gravity =   /* Gravitational acceleration ( m/s^2 ) */
(PID.TID 0000.0001)                 9.810000000000000E+00
(PID.TID 0000.0001)     ;
(PID.TID 0000.0001) gBaro =   /* Barotropic gravity ( m/s^2 ) */
(PID.TID 0000.0001)                 9.810000000000000E+00
(PID.TID 0000.0001)     ;
(PID.TID 0000.0001) rotationPeriod =   /* Rotation Period ( s ) */
(PID.TID 0000.0001)                 8.640000000000000E+04
(PID.TID 0000.0001)     ;
(PID.TID 0000.0001) omega =   /* Angular velocity ( rad/s ) */
(PID.TID 0000.0001)                 7.272205216643040E-05
(PID.TID 0000.0001)     ;
(PID.TID 0000.0001) f0 =   /* Reference coriolis parameter ( 1/s ) */
(PID.TID 0000.0001)                 1.000000000000000E-04
(PID.TID 0000.0001)     ;
(PID.TID 0000.0001) beta =   /* Beta ( 1/(m.s) ) */
(PID.TID 0000.0001)                 9.999999999999999E-12
(PID.TID 0000.0001)     ;
(PID.TID 0000.0001) freeSurfFac =   /* Implicit free surface factor */
(PID.TID 0000.0001)                 1.000000000000000E+00
(PID.TID 0000.0001)     ;
(PID.TID 0000.0001) implicitFreeSurface =   /* Implicit free surface on/off flag */
(PID.TID 0000.0001)                   T
(PID.TID 0000.0001)     ;
(PID.TID 0000.0001) rigidLid =   /* Rigid lid on/off flag */
(PID.TID 0000.0001)                   F
(PID.TID 0000.0001)     ;
(PID.TID 0000.0001) implicSurfPress =   /* Surface Pressure implicit factor (0-1)*/
(PID.TID 0000.0001)                 1.000000000000000E+00
(PID.TID 0000.0001)     ;
(PID.TID 0000.0001) implicDiv2Dflow =   /* Barot. Flow Div. implicit factor (0-1)*/
(PID.TID 0000.0001)                 1.000000000000000E+00
(PID.TID 0000.0001)     ;
(PID.TID 0000.0001) exactConserv =   /* Exact Volume Conservation on/off flag*/
(PID.TID 0000.0001)                   T
(PID.TID 0000.0001)     ;
(PID.TID 0000.0001) uniformLin_PhiSurf =   /* use uniform Bo_surf on/off flag*/
(PID.TID 0000.0001)                   T
(PID.TID 0000.0001)     ;
(PID.TID 0000.0001) nonlinFreeSurf =   /* Non-linear Free Surf. options (-1,0,1,2,3)*/
(PID.TID 0000.0001)                       0
(PID.TID 0000.0001)     ;
(PID.TID 0000.0001)      -1,0= Off ; 1,2,3= On, 2=+rescale gU,gV, 3=+update cg2d solv.
(PID.TID 0000.0001) hFacInf =   /* lower threshold for hFac (nonlinFreeSurf only)*/
(PID.TID 0000.0001)                 2.000000000000000E-01
(PID.TID 0000.0001)     ;
(PID.TID 0000.0001) hFacSup =   /* upper threshold for hFac (nonlinFreeSurf only)*/
(PID.TID 0000.0001)                 2.000000000000000E+00
(PID.TID 0000.0001)     ;
(PID.TID 0000.0001) select_rStar =   /* r* Coordinate options (not yet implemented)*/
(PID.TID 0000.0001)                       0
(PID.TID 0000.0001)     ;
(PID.TID 0000.0001) useRealFreshWaterFlux =   /* Real Fresh Water Flux on/off flag*/
(PID.TID 0000.0001)                   F
(PID.TID 0000.0001)     ;
(PID.TID 0000.0001) convertFW2Salt = /* convert F.W. Flux to Salt Flux (-1=use local S)(ppt)*/
(PID.TID 0000.0001)                 3.500000000000000E+01
(PID.TID 0000.0001)     ;
(PID.TID 0000.0001) nonHydrostatic =  /* Non-Hydrostatic on/off flag */
(PID.TID 0000.0001)                   F
(PID.TID 0000.0001)     ;
(PID.TID 0000.0001) momStepping =  /* Momentum equation on/off flag */
(PID.TID 0000.0001)                   T
(PID.TID 0000.0001)     ;
(PID.TID 0000.0001) momAdvection =  /* Momentum advection on/off flag */
(PID.TID 0000.0001)                   T
(PID.TID 0000.0001)     ;
(PID.TID 0000.0001) momViscosity =  /* Momentum viscosity on/off flag */
(PID.TID 0000.0001)                   T
(PID.TID 0000.0001)     ;
(PID.TID 0000.0001) momImplVertAdv =/* Momentum implicit vert. advection on/off*/
(PID.TID 0000.0001)                   F
(PID.TID 0000.0001)     ;
(PID.TID 0000.0001) implicitViscosity = /* Implicit viscosity on/off flag */
(PID.TID 0000.0001)                   F
(PID.TID 0000.0001)     ;
(PID.TID 0000.0001) useCoriolis =  /* Coriolis on/off flag */
(PID.TID 0000.0001)                   T
(PID.TID 0000.0001)     ;
(PID.TID 0000.0001) useCDscheme =  /* CD scheme on/off flag */
(PID.TID 0000.0001)                   F
(PID.TID 0000.0001)     ;
(PID.TID 0000.0001) useJamartWetPoints= /* Coriolis WetPoints method flag */
(PID.TID 0000.0001)                   F
(PID.TID 0000.0001)     ;
(PID.TID 0000.0001) useJamartMomAdv= /* V.I. Non-linear terms Jamart flag */
(PID.TID 0000.0001)                   F
(PID.TID 0000.0001)     ;
(PID.TID 0000.0001) SadournyCoriolis= /* Sadourny Coriolis discr. flag */
(PID.TID 0000.0001)                   F
(PID.TID 0000.0001)     ;
(PID.TID 0000.0001) upwindVorticity= /* Upwind bias vorticity flag */
(PID.TID 0000.0001)                   F
(PID.TID 0000.0001)     ;
(PID.TID 0000.0001) useAbsVorticity= /* Work with f+zeta in Coriolis */
(PID.TID 0000.0001)                   F
(PID.TID 0000.0001)     ;
(PID.TID 0000.0001) highOrderVorticity= /* High order interp. of vort. flag */
(PID.TID 0000.0001)                   F
(PID.TID 0000.0001)     ;
(PID.TID 0000.0001) momForcing =  /* Momentum forcing on/off flag */
(PID.TID 0000.0001)                   T
(PID.TID 0000.0001)     ;
(PID.TID 0000.0001) momPressureForcing =  /* Momentum pressure term on/off flag */
(PID.TID 0000.0001)                   T
(PID.TID 0000.0001)     ;
(PID.TID 0000.0001) staggerTimeStep =   /* Stagger time stepping on/off flag */
(PID.TID 0000.0001)                   T
(PID.TID 0000.0001)     ;
(PID.TID 0000.0001) multiDimAdvection =   /* enable/disable Multi-Dim Advection */
(PID.TID 0000.0001)                   T
(PID.TID 0000.0001)     ;
(PID.TID 0000.0001) useMultiDimAdvec =   /* Multi-Dim Advection is/is-not used */
(PID.TID 0000.0001)                   F
(PID.TID 0000.0001)     ;
(PID.TID 0000.0001) implicitDiffusion =/* Implicit Diffusion on/off flag */
(PID.TID 0000.0001)                   F
(PID.TID 0000.0001)     ;
(PID.TID 0000.0001) tempStepping =  /* Temperature equation on/off flag */
(PID.TID 0000.0001)                   T
(PID.TID 0000.0001)     ;
(PID.TID 0000.0001) tempAdvection=  /* Temperature advection on/off flag */
(PID.TID 0000.0001)                   T
(PID.TID 0000.0001)     ;
(PID.TID 0000.0001) tempImplVertAdv =/* Temp. implicit vert. advection on/off */
(PID.TID 0000.0001)                   F
(PID.TID 0000.0001)     ;
(PID.TID 0000.0001) tempForcing  =  /* Temperature forcing on/off flag */
(PID.TID 0000.0001)                   T
(PID.TID 0000.0001)     ;
(PID.TID 0000.0001) saltStepping =  /* Salinity equation on/off flag */
(PID.TID 0000.0001)                   T
(PID.TID 0000.0001)     ;
(PID.TID 0000.0001) saltAdvection=  /* Salinity advection on/off flag */
(PID.TID 0000.0001)                   T
(PID.TID 0000.0001)     ;
(PID.TID 0000.0001) saltImplVertAdv =/* Sali. implicit vert. advection on/off */
(PID.TID 0000.0001)                   F
(PID.TID 0000.0001)     ;
(PID.TID 0000.0001) saltForcing  =  /* Salinity forcing on/off flag */
(PID.TID 0000.0001)                   T
(PID.TID 0000.0001)     ;
(PID.TID 0000.0001) //
(PID.TID 0000.0001) // Elliptic solver(s) paramters ( PARM02 in namelist )
(PID.TID 0000.0001) //
(PID.TID 0000.0001) cg2dMaxIters =   /* Upper limit on 2d con. grad iterations  */
(PID.TID 0000.0001)                     200
(PID.TID 0000.0001)     ;
(PID.TID 0000.0001) cg2dChkResFreq =   /* 2d con. grad convergence test frequency */
(PID.TID 0000.0001)                       1
(PID.TID 0000.0001)     ;
(PID.TID 0000.0001) cg2dTargetResidual =   /* 2d con. grad target residual  */
(PID.TID 0000.0001)                 1.000000000000000E-07
(PID.TID 0000.0001)     ;
(PID.TID 0000.0001) cg2dTargetResWunit =   /* CG2d target residual [W units] */
(PID.TID 0000.0001)                 1.000000000000000E-17
(PID.TID 0000.0001)     ;
(PID.TID 0000.0001) cg2dPreCondFreq =   /* Freq. for updating cg2d preconditioner */
(PID.TID 0000.0001)                       1
(PID.TID 0000.0001)     ;
(PID.TID 0000.0001) //
(PID.TID 0000.0001) // Time stepping paramters ( PARM03 in namelist )
(PID.TID 0000.0001) //
(PID.TID 0000.0001) nIter0 =   /* Base timestep number  */
(PID.TID 0000.0001)                   51840
(PID.TID 0000.0001)     ;
(PID.TID 0000.0001) nTimeSteps =   /* Number of timesteps */
(PID.TID 0000.0001)                      10
(PID.TID 0000.0001)     ;
(PID.TID 0000.0001) deltatTmom =   /* Momentum equation timestep ( s ) */
(PID.TID 0000.0001)                 6.000000000000000E+02
(PID.TID 0000.0001)     ;
(PID.TID 0000.0001) deltaTfreesurf =   /* FreeSurface equation timestep ( s ) */
(PID.TID 0000.0001)                 6.000000000000000E+02
(PID.TID 0000.0001)     ;
(PID.TID 0000.0001) dTtracerLev =   /* Tracer equation timestep ( s ) */
(PID.TID 0000.0001)     5 @  6.000000000000000E+02              /* K =  1:  5 */
(PID.TID 0000.0001)     ;
(PID.TID 0000.0001) deltatTClock  =   /* Model clock timestep ( s ) */
(PID.TID 0000.0001)                 6.000000000000000E+02
(PID.TID 0000.0001)     ;
(PID.TID 0000.0001) cAdjFreq =   /* Convective adjustment interval ( s ) */
(PID.TID 0000.0001)                 0.000000000000000E+00
(PID.TID 0000.0001)     ;
(PID.TID 0000.0001) forcing_In_AB =   /* put T,S Forcing in Adams-Bash. stepping */
(PID.TID 0000.0001)                   F
(PID.TID 0000.0001)     ;
(PID.TID 0000.0001) abeps =   /* Adams-Bashforth stabilizing weight */
(PID.TID 0000.0001)                 1.000000000000000E-01
(PID.TID 0000.0001)     ;
(PID.TID 0000.0001) startTime =   /* Run start time ( s ). */
(PID.TID 0000.0001)                 3.110400000000000E+07
(PID.TID 0000.0001)     ;
(PID.TID 0000.0001) endTime =   /* Integration ending time ( s ). */
(PID.TID 0000.0001)                 3.111000000000000E+07
(PID.TID 0000.0001)     ;
(PID.TID 0000.0001) pChkPtFreq =   /* Permanent restart/checkpoint file interval ( s ). */
(PID.TID 0000.0001)                 2.592000000000000E+06
(PID.TID 0000.0001)     ;
(PID.TID 0000.0001) chkPtFreq =   /* Rolling restart/checkpoint file interval ( s ). */
(PID.TID 0000.0001)                 0.000000000000000E+00
(PID.TID 0000.0001)     ;
(PID.TID 0000.0001) pickup_write_mdsio =   /* Model IO flag. */
(PID.TID 0000.0001)                   T
(PID.TID 0000.0001)     ;
(PID.TID 0000.0001) pickup_read_mdsio =   /* Model IO flag. */
(PID.TID 0000.0001)                   T
(PID.TID 0000.0001)     ;
(PID.TID 0000.0001) pickup_write_immed =   /* Model IO flag. */
(PID.TID 0000.0001)                   F
(PID.TID 0000.0001)     ;
(PID.TID 0000.0001) dumpFreq =   /* Model state write out interval ( s ). */
(PID.TID 0000.0001)                 2.592000000000000E+06
(PID.TID 0000.0001)     ;
(PID.TID 0000.0001) snapshot_mdsio =   /* Model IO flag. */
(PID.TID 0000.0001)                   T
(PID.TID 0000.0001)     ;
(PID.TID 0000.0001) monitorFreq =   /* Monitor output interval ( s ). */
(PID.TID 0000.0001)                 1.000000000000000E+00
(PID.TID 0000.0001)     ;
(PID.TID 0000.0001) monitor_stdio =   /* Model IO flag. */
(PID.TID 0000.0001)                   T
(PID.TID 0000.0001)     ;
(PID.TID 0000.0001) externForcingPeriod =   /* forcing period (s) */
(PID.TID 0000.0001)                 0.000000000000000E+00
(PID.TID 0000.0001)     ;
(PID.TID 0000.0001) externForcingCycle =   /* period of the cyle (s). */
(PID.TID 0000.0001)                 0.000000000000000E+00
(PID.TID 0000.0001)     ;
(PID.TID 0000.0001) tauThetaClimRelax =   /* relaxation time scale (s) */
(PID.TID 0000.0001)                 0.000000000000000E+00
(PID.TID 0000.0001)     ;
(PID.TID 0000.0001) tauSaltClimRelax =   /* relaxation time scale (s) */
(PID.TID 0000.0001)                 0.000000000000000E+00
(PID.TID 0000.0001)     ;
(PID.TID 0000.0001) latBandClimRelax =   /* max. Lat. where relaxation */
(PID.TID 0000.0001)                 1.800000000000000E+02
(PID.TID 0000.0001)     ;
(PID.TID 0000.0001) //
(PID.TID 0000.0001) // Gridding paramters ( PARM04 in namelist )
(PID.TID 0000.0001) //
(PID.TID 0000.0001) usingCartesianGrid =   /* Cartesian coordinates flag ( True / False ) */
(PID.TID 0000.0001)                   F
(PID.TID 0000.0001)     ;
(PID.TID 0000.0001) usingSphericalPolarGrid =   /* Spherical coordinates flag ( True / False ) */
(PID.TID 0000.0001)                   T
(PID.TID 0000.0001)     ;
(PID.TID 0000.0001) usingCylindricalGrid =   /* Spherical coordinates flag ( True / False ) */
(PID.TID 0000.0001)                   F
(PID.TID 0000.0001)     ;
(PID.TID 0000.0001) groundAtK1 =   /* Lower Boundary (ground) at the surface(k=1) ( T / F ) */
(PID.TID 0000.0001)                   T
(PID.TID 0000.0001)     ;
(PID.TID 0000.0001) Ro_SeaLevel =   /* r(1) ( units of r ) */
(PID.TID 0000.0001)                 1.000000000000000E+05
(PID.TID 0000.0001)     ;
(PID.TID 0000.0001) rkFac =   /* minus Vertical index orientation  */
(PID.TID 0000.0001)                 1.000000000000000E+00
(PID.TID 0000.0001)     ;
(PID.TID 0000.0001) horiVertRatio =   /* Ratio on units : Horiz - Vertical */
(PID.TID 0000.0001)                 9.810000000000000E+00
(PID.TID 0000.0001)     ;
(PID.TID 0000.0001) drC =   /* C spacing ( units of r ) */
(PID.TID 0000.0001)                 5.000000000000000E+03,      /* K =  1 */
(PID.TID 0000.0001)                 1.750000000000000E+04,      /* K =  2 */
(PID.TID 0000.0001)                 2.750000000000000E+04,      /* K =  3 */
(PID.TID 0000.0001)                 2.500000000000000E+04,      /* K =  4 */
(PID.TID 0000.0001)                 1.750000000000000E+04       /* K =  5 */
(PID.TID 0000.0001)     ;
(PID.TID 0000.0001) drF =   /* W spacing ( units of r ) */
(PID.TID 0000.0001)                 1.000000000000000E+04,      /* K =  1 */
(PID.TID 0000.0001)                 2.500000000000000E+04,      /* K =  2 */
(PID.TID 0000.0001)                 3.000000000000000E+04,      /* K =  3 */
(PID.TID 0000.0001)                 2.000000000000000E+04,      /* K =  4 */
(PID.TID 0000.0001)                 1.500000000000000E+04       /* K =  5 */
(PID.TID 0000.0001)     ;
(PID.TID 0000.0001) delX =   /* U spacing ( m - cartesian, degrees - spherical ) */
(PID.TID 0000.0001)   128 @  2.812500000000000E+00              /* I =  1:128 */
(PID.TID 0000.0001)     ;
(PID.TID 0000.0001) delY =   /* V spacing ( m - cartesian, degrees - spherical ) */
(PID.TID 0000.0001)    23 @  2.812500000000000E+00              /* J =  1: 23 */
(PID.TID 0000.0001)     ;
(PID.TID 0000.0001) phiMin =    /* South edge (ignored - cartesian, degrees - spherical ) */
(PID.TID 0000.0001)                -3.234375000000000E+01
(PID.TID 0000.0001)     ;
(PID.TID 0000.0001) thetaMin =    /* West edge ( ignored - cartesian, degrees - spherical ) */
(PID.TID 0000.0001)                 0.000000000000000E+00
(PID.TID 0000.0001)     ;
(PID.TID 0000.0001) rSphere =    /* Radius ( ignored - cartesian, m - spherical ) */
(PID.TID 0000.0001)                 6.370000000000000E+06
(PID.TID 0000.0001)     ;
(PID.TID 0000.0001) xcoord =   /* P-point X coord ( m - cartesian, degrees - spherical ) */
(PID.TID 0000.0001)                 1.406250000000000E+00,      /* I =  1 */
(PID.TID 0000.0001)                 4.218750000000000E+00,      /* I =  2 */
(PID.TID 0000.0001)                 7.031250000000000E+00,      /* I =  3 */
(PID.TID 0000.0001)                 9.843750000000000E+00,      /* I =  4 */
(PID.TID 0000.0001)                 1.265625000000000E+01,      /* I =  5 */
(PID.TID 0000.0001)                 1.546875000000000E+01,      /* I =  6 */
(PID.TID 0000.0001)                 1.828125000000000E+01,      /* I =  7 */
(PID.TID 0000.0001)                 2.109375000000000E+01,      /* I =  8 */
(PID.TID 0000.0001)                 2.390625000000000E+01,      /* I =  9 */
(PID.TID 0000.0001)                 2.671875000000000E+01,      /* I = 10 */
(PID.TID 0000.0001)                 2.953125000000000E+01,      /* I = 11 */
(PID.TID 0000.0001)                 3.234375000000000E+01,      /* I = 12 */
(PID.TID 0000.0001)                 3.515625000000000E+01,      /* I = 13 */
(PID.TID 0000.0001)                 3.796875000000000E+01,      /* I = 14 */
(PID.TID 0000.0001)                 4.078125000000000E+01,      /* I = 15 */
(PID.TID 0000.0001)                 4.359375000000000E+01,      /* I = 16 */
(PID.TID 0000.0001)                 4.640625000000000E+01,      /* I = 17 */
(PID.TID 0000.0001)                 4.921875000000000E+01,      /* I = 18 */
(PID.TID 0000.0001)                 5.203125000000000E+01,      /* I = 19 */
(PID.TID 0000.0001)                 5.484375000000000E+01,      /* I = 20 */
(PID.TID 0000.0001)                 5.765625000000000E+01,      /* I = 21 */
(PID.TID 0000.0001)                 6.046875000000000E+01,      /* I = 22 */
(PID.TID 0000.0001)                 6.328125000000000E+01,      /* I = 23 */
(PID.TID 0000.0001)                 6.609375000000000E+01,      /* I = 24 */
(PID.TID 0000.0001)                 6.890625000000000E+01,      /* I = 25 */
(PID.TID 0000.0001)                 7.171875000000000E+01,      /* I = 26 */
(PID.TID 0000.0001)                 7.453125000000000E+01,      /* I = 27 */
(PID.TID 0000.0001)                 7.734375000000000E+01,      /* I = 28 */
(PID.TID 0000.0001)                 8.015625000000000E+01,      /* I = 29 */
(PID.TID 0000.0001)                 8.296875000000000E+01,      /* I = 30 */
(PID.TID 0000.0001)                 8.578125000000000E+01,      /* I = 31 */
(PID.TID 0000.0001)                 8.859375000000000E+01,      /* I = 32 */
(PID.TID 0000.0001)                 9.140625000000000E+01,      /* I = 33 */
(PID.TID 0000.0001)                 9.421875000000000E+01,      /* I = 34 */
(PID.TID 0000.0001)                 9.703125000000000E+01,      /* I = 35 */
(PID.TID 0000.0001)                 9.984375000000000E+01,      /* I = 36 */
(PID.TID 0000.0001)                 1.026562500000000E+02,      /* I = 37 */
(PID.TID 0000.0001)                 1.054687500000000E+02,      /* I = 38 */
(PID.TID 0000.0001)                 1.082812500000000E+02,      /* I = 39 */
(PID.TID 0000.0001)                 1.110937500000000E+02,      /* I = 40 */
(PID.TID 0000.0001)                 1.139062500000000E+02,      /* I = 41 */
(PID.TID 0000.0001)                 1.167187500000000E+02,      /* I = 42 */
(PID.TID 0000.0001)                 1.195312500000000E+02,      /* I = 43 */
(PID.TID 0000.0001)                 1.223437500000000E+02,      /* I = 44 */
(PID.TID 0000.0001)                 1.251562500000000E+02,      /* I = 45 */
(PID.TID 0000.0001)                 1.279687500000000E+02,      /* I = 46 */
(PID.TID 0000.0001)                 1.307812500000000E+02,      /* I = 47 */
(PID.TID 0000.0001)                 1.335937500000000E+02,      /* I = 48 */
(PID.TID 0000.0001)                 1.364062500000000E+02,      /* I = 49 */
(PID.TID 0000.0001)                 1.392187500000000E+02,      /* I = 50 */
(PID.TID 0000.0001)                 1.420312500000000E+02,      /* I = 51 */
(PID.TID 0000.0001)                 1.448437500000000E+02,      /* I = 52 */
(PID.TID 0000.0001)                 1.476562500000000E+02,      /* I = 53 */
(PID.TID 0000.0001)                 1.504687500000000E+02,      /* I = 54 */
(PID.TID 0000.0001)                 1.532812500000000E+02,      /* I = 55 */
(PID.TID 0000.0001)                 1.560937500000000E+02,      /* I = 56 */
(PID.TID 0000.0001)                 1.589062500000000E+02,      /* I = 57 */
(PID.TID 0000.0001)                 1.617187500000000E+02,      /* I = 58 */
(PID.TID 0000.0001)                 1.645312500000000E+02,      /* I = 59 */
(PID.TID 0000.0001)                 1.673437500000000E+02,      /* I = 60 */
(PID.TID 0000.0001)                 1.701562500000000E+02,      /* I = 61 */
(PID.TID 0000.0001)                 1.729687500000000E+02,      /* I = 62 */
(PID.TID 0000.0001)                 1.757812500000000E+02,      /* I = 63 */
(PID.TID 0000.0001)                 1.785937500000000E+02,      /* I = 64 */
(PID.TID 0000.0001)                 1.814062500000000E+02,      /* I = 65 */
(PID.TID 0000.0001)                 1.842187500000000E+02,      /* I = 66 */
(PID.TID 0000.0001)                 1.870312500000000E+02,      /* I = 67 */
(PID.TID 0000.0001)                 1.898437500000000E+02,      /* I = 68 */
(PID.TID 0000.0001)                 1.926562500000000E+02,      /* I = 69 */
(PID.TID 0000.0001)                 1.954687500000000E+02,      /* I = 70 */
(PID.TID 0000.0001)                 1.982812500000000E+02,      /* I = 71 */
(PID.TID 0000.0001)                 2.010937500000000E+02,      /* I = 72 */
(PID.TID 0000.0001)                 2.039062500000000E+02,      /* I = 73 */
(PID.TID 0000.0001)                 2.067187500000000E+02,      /* I = 74 */
(PID.TID 0000.0001)                 2.095312500000000E+02,      /* I = 75 */
(PID.TID 0000.0001)                 2.123437500000000E+02,      /* I = 76 */
(PID.TID 0000.0001)                 2.151562500000000E+02,      /* I = 77 */
(PID.TID 0000.0001)                 2.179687500000000E+02,      /* I = 78 */
(PID.TID 0000.0001)                 2.207812500000000E+02,      /* I = 79 */
(PID.TID 0000.0001)                 2.235937500000000E+02,      /* I = 80 */
(PID.TID 0000.0001)                 2.264062500000000E+02,      /* I = 81 */
(PID.TID 0000.0001)                 2.292187500000000E+02,      /* I = 82 */
(PID.TID 0000.0001)                 2.320312500000000E+02,      /* I = 83 */
(PID.TID 0000.0001)                 2.348437500000000E+02,      /* I = 84 */
(PID.TID 0000.0001)                 2.376562500000000E+02,      /* I = 85 */
(PID.TID 0000.0001)                 2.404687500000000E+02,      /* I = 86 */
(PID.TID 0000.0001)                 2.432812500000000E+02,      /* I = 87 */
(PID.TID 0000.0001)                 2.460937500000000E+02,      /* I = 88 */
(PID.TID 0000.0001)                 2.489062500000000E+02,      /* I = 89 */
(PID.TID 0000.0001)                 2.517187500000000E+02,      /* I = 90 */
(PID.TID 0000.0001)                 2.545312500000000E+02,      /* I = 91 */
(PID.TID 0000.0001)                 2.573437500000000E+02,      /* I = 92 */
(PID.TID 0000.0001)                 2.601562500000000E+02,      /* I = 93 */
(PID.TID 0000.0001)                 2.629687500000000E+02,      /* I = 94 */
(PID.TID 0000.0001)                 2.657812500000000E+02,      /* I = 95 */
(PID.TID 0000.0001)                 2.685937500000000E+02,      /* I = 96 */
(PID.TID 0000.0001)                 2.714062500000000E+02,      /* I = 97 */
(PID.TID 0000.0001)                 2.742187500000000E+02,      /* I = 98 */
(PID.TID 0000.0001)                 2.770312500000000E+02,      /* I = 99 */
(PID.TID 0000.0001)                 2.798437500000000E+02,      /* I =100 */
(PID.TID 0000.0001)                 2.826562500000000E+02,      /* I =101 */
(PID.TID 0000.0001)                 2.854687500000000E+02,      /* I =102 */
(PID.TID 0000.0001)                 2.882812500000000E+02,      /* I =103 */
(PID.TID 0000.0001)                 2.910937500000000E+02,      /* I =104 */
(PID.TID 0000.0001)                 2.939062500000000E+02,      /* I =105 */
(PID.TID 0000.0001)                 2.967187500000000E+02,      /* I =106 */
(PID.TID 0000.0001)                 2.995312500000000E+02,      /* I =107 */
(PID.TID 0000.0001)                 3.023437500000000E+02,      /* I =108 */
(PID.TID 0000.0001)                 3.051562500000000E+02,      /* I =109 */
(PID.TID 0000.0001)                 3.079687500000000E+02,      /* I =110 */
(PID.TID 0000.0001)                 3.107812500000000E+02,      /* I =111 */
(PID.TID 0000.0001)                 3.135937500000000E+02,      /* I =112 */
(PID.TID 0000.0001)                 3.164062500000000E+02,      /* I =113 */
(PID.TID 0000.0001)                 3.192187500000000E+02,      /* I =114 */
(PID.TID 0000.0001)                 3.220312500000000E+02,      /* I =115 */
(PID.TID 0000.0001)                 3.248437500000000E+02,      /* I =116 */
(PID.TID 0000.0001)                 3.276562500000000E+02,      /* I =117 */
(PID.TID 0000.0001)                 3.304687500000000E+02,      /* I =118 */
(PID.TID 0000.0001)                 3.332812500000000E+02,      /* I =119 */
(PID.TID 0000.0001)                 3.360937500000000E+02,      /* I =120 */
(PID.TID 0000.0001)                 3.389062500000000E+02,      /* I =121 */
(PID.TID 0000.0001)                 3.417187500000000E+02,      /* I =122 */
(PID.TID 0000.0001)                 3.445312500000000E+02,      /* I =123 */
(PID.TID 0000.0001)                 3.473437500000000E+02,      /* I =124 */
(PID.TID 0000.0001)                 3.501562500000000E+02,      /* I =125 */
(PID.TID 0000.0001)                 3.529687500000000E+02,      /* I =126 */
(PID.TID 0000.0001)                 3.557812500000000E+02,      /* I =127 */
(PID.TID 0000.0001)                 3.585937500000000E+02       /* I =128 */
(PID.TID 0000.0001)     ;
(PID.TID 0000.0001) ycoord =   /* P-point Y coord ( m - cartesian, degrees - spherical ) */
(PID.TID 0000.0001)                -3.093750000000000E+01,      /* J =  1 */
(PID.TID 0000.0001)                -2.812500000000000E+01,      /* J =  2 */
(PID.TID 0000.0001)                -2.531250000000000E+01,      /* J =  3 */
(PID.TID 0000.0001)                -2.250000000000000E+01,      /* J =  4 */
(PID.TID 0000.0001)                -1.968750000000000E+01,      /* J =  5 */
(PID.TID 0000.0001)                -1.687500000000000E+01,      /* J =  6 */
(PID.TID 0000.0001)                -1.406250000000000E+01,      /* J =  7 */
(PID.TID 0000.0001)                -1.125000000000000E+01,      /* J =  8 */
(PID.TID 0000.0001)                -8.437500000000000E+00,      /* J =  9 */
(PID.TID 0000.0001)                -5.625000000000000E+00,      /* J = 10 */
(PID.TID 0000.0001)                -2.812500000000000E+00,      /* J = 11 */
(PID.TID 0000.0001)                 0.000000000000000E+00,      /* J = 12 */
(PID.TID 0000.0001)                 2.812500000000000E+00,      /* J = 13 */
(PID.TID 0000.0001)                 5.625000000000000E+00,      /* J = 14 */
(PID.TID 0000.0001)                 8.437500000000000E+00,      /* J = 15 */
(PID.TID 0000.0001)                 1.125000000000000E+01,      /* J = 16 */
(PID.TID 0000.0001)                 1.406250000000000E+01,      /* J = 17 */
(PID.TID 0000.0001)                 1.687500000000000E+01,      /* J = 18 */
(PID.TID 0000.0001)                 1.968750000000000E+01,      /* J = 19 */
(PID.TID 0000.0001)                 2.250000000000000E+01,      /* J = 20 */
(PID.TID 0000.0001)                 2.531250000000000E+01,      /* J = 21 */
(PID.TID 0000.0001)                 2.812500000000000E+01,      /* J = 22 */
(PID.TID 0000.0001)                 3.093750000000000E+01       /* J = 23 */
(PID.TID 0000.0001)     ;
(PID.TID 0000.0001) rcoord =   /* P-point R coordinate (  units of r ) */
(PID.TID 0000.0001)                 9.500000000000000E+04,      /* K =  1 */
(PID.TID 0000.0001)                 7.750000000000000E+04,      /* K =  2 */
(PID.TID 0000.0001)                 5.000000000000000E+04,      /* K =  3 */
(PID.TID 0000.0001)                 2.500000000000000E+04,      /* K =  4 */
(PID.TID 0000.0001)                 7.500000000000000E+03       /* K =  5 */
(PID.TID 0000.0001)     ;
(PID.TID 0000.0001) rF =   /* W-Interf. R coordinate (  units of r ) */
(PID.TID 0000.0001)                 1.000000000000000E+05,      /* K =  1 */
(PID.TID 0000.0001)                 9.000000000000000E+04,      /* K =  2 */
(PID.TID 0000.0001)                 6.500000000000000E+04,      /* K =  3 */
(PID.TID 0000.0001)                 3.500000000000000E+04,      /* K =  4 */
(PID.TID 0000.0001)                 1.500000000000000E+04,      /* K =  5 */
(PID.TID 0000.0001)                 0.000000000000000E+00       /* K =  6 */
(PID.TID 0000.0001)     ;
(PID.TID 0000.0001) dxF =  /* dxF(:,1,:,1) ( m - cartesian, degrees - spherical ) */
(PID.TID 0000.0001)   128 @  2.682002803544621E+05              /* I =  1:128 */
(PID.TID 0000.0001)     ;
(PID.TID 0000.0001) dxF =  /* dxF(1,:,1,:) ( m - cartesian, degrees - spherical ) */
(PID.TID 0000.0001)                 2.682002803544621E+05,      /* J =  1 */
(PID.TID 0000.0001)                 2.757650002472408E+05,      /* J =  2 */
(PID.TID 0000.0001)                 2.826653781002625E+05,      /* J =  3 */
(PID.TID 0000.0001)                 2.888847902988777E+05,      /* J =  4 */
(PID.TID 0000.0001)                 2.944082537343438E+05,      /* J =  5 */
(PID.TID 0000.0001)                 2.992224618994463E+05,      /* J =  6 */
(PID.TID 0000.0001)                 3.033158169450409E+05,      /* J =  7 */
(PID.TID 0000.0001)                 3.066784576202870E+05,      /* J =  8 */
(PID.TID 0000.0001)                 3.093022830292655E+05,      /* J =  9 */
(PID.TID 0000.0001)                 3.111809721467461E+05,      /* J = 10 */
(PID.TID 0000.0001)                 3.123099990460912E+05,      /* J = 11 */
(PID.TID 0000.0001)                 3.126866438026091E+05,      /* J = 12 */
(PID.TID 0000.0001)                 3.123099990460912E+05,      /* J = 13 */
(PID.TID 0000.0001)                 3.111809721467461E+05,      /* J = 14 */
(PID.TID 0000.0001)                 3.093022830292655E+05,      /* J = 15 */
(PID.TID 0000.0001)                 3.066784576202870E+05,      /* J = 16 */
(PID.TID 0000.0001)                 3.033158169450409E+05,      /* J = 17 */
(PID.TID 0000.0001)                 2.992224618994463E+05,      /* J = 18 */
(PID.TID 0000.0001)                 2.944082537343438E+05,      /* J = 19 */
(PID.TID 0000.0001)                 2.888847902988777E+05,      /* J = 20 */
(PID.TID 0000.0001)                 2.826653781002625E+05,      /* J = 21 */
(PID.TID 0000.0001)                 2.757650002472408E+05,      /* J = 22 */
(PID.TID 0000.0001)                 2.682002803544621E+05       /* J = 23 */
(PID.TID 0000.0001)     ;
(PID.TID 0000.0001) dyF =  /* dyF(:,1,:,1) ( m - cartesian, degrees - spherical ) */
(PID.TID 0000.0001)   128 @  3.126866438026091E+05              /* I =  1:128 */
(PID.TID 0000.0001)     ;
(PID.TID 0000.0001) dyF =  /* dyF(1,:,1,:) ( m - cartesian, degrees - spherical ) */
(PID.TID 0000.0001)    23 @  3.126866438026091E+05              /* J =  1: 23 */
(PID.TID 0000.0001)     ;
(PID.TID 0000.0001) dxG =  /* dxG(:,1,:,1) ( m - cartesian, degrees - spherical ) */
(PID.TID 0000.0001)   128 @  2.641744258225996E+05              /* I =  1:128 */
(PID.TID 0000.0001)     ;
(PID.TID 0000.0001) dxG =  /* dxG(1,:,1,:) ( m - cartesian, degrees - spherical ) */
(PID.TID 0000.0001)                 2.641744258225996E+05,      /* J =  1 */
(PID.TID 0000.0001)                 2.720645810660936E+05,      /* J =  2 */
(PID.TID 0000.0001)                 2.792993089037565E+05,      /* J =  3 */
(PID.TID 0000.0001)                 2.858611802425402E+05,      /* J =  4 */
(PID.TID 0000.0001)                 2.917343869596373E+05,      /* J =  5 */
(PID.TID 0000.0001)                 2.969047799856344E+05,      /* J =  6 */
(PID.TID 0000.0001)                 3.013599033908587E+05,      /* J =  7 */
(PID.TID 0000.0001)                 3.050890243928043E+05,      /* J =  8 */
(PID.TID 0000.0001)                 3.080831592123453E+05,      /* J =  9 */
(PID.TID 0000.0001)                 3.103350947164461E+05,      /* J = 10 */
(PID.TID 0000.0001)                 3.118394057952309E+05,      /* J = 11 */
(PID.TID 0000.0001)     2 @  3.125924684315491E+05,             /* J = 12: 13 */
(PID.TID 0000.0001)                 3.118394057952309E+05,      /* J = 14 */
(PID.TID 0000.0001)                 3.103350947164461E+05,      /* J = 15 */
(PID.TID 0000.0001)                 3.080831592123453E+05,      /* J = 16 */
(PID.TID 0000.0001)                 3.050890243928043E+05,      /* J = 17 */
(PID.TID 0000.0001)                 3.013599033908587E+05,      /* J = 18 */
(PID.TID 0000.0001)                 2.969047799856344E+05,      /* J = 19 */
(PID.TID 0000.0001)                 2.917343869596373E+05,      /* J = 20 */
(PID.TID 0000.0001)                 2.858611802425402E+05,      /* J = 21 */
(PID.TID 0000.0001)                 2.792993089037565E+05,      /* J = 22 */
(PID.TID 0000.0001)                 2.720645810660936E+05       /* J = 23 */
(PID.TID 0000.0001)     ;
(PID.TID 0000.0001) dyG =  /* dyG(:,1,:,1) ( m - cartesian, degrees - spherical ) */
(PID.TID 0000.0001)   128 @  3.126866438026091E+05              /* I =  1:128 */
(PID.TID 0000.0001)     ;
(PID.TID 0000.0001) dyG =  /* dyG(1,:,1,:) ( m - cartesian, degrees - spherical ) */
(PID.TID 0000.0001)    23 @  3.126866438026091E+05              /* J =  1: 23 */
(PID.TID 0000.0001)     ;
(PID.TID 0000.0001) dxC =  /* dxC(:,1,:,1) ( m - cartesian, degrees - spherical ) */
(PID.TID 0000.0001)   128 @  2.682002803544621E+05              /* I =  1:128 */
(PID.TID 0000.0001)     ;
(PID.TID 0000.0001) dxC =  /* dxC(1,:,1,:) ( m - cartesian, degrees - spherical ) */
(PID.TID 0000.0001)                 2.682002803544621E+05,      /* J =  1 */
(PID.TID 0000.0001)                 2.757650002472408E+05,      /* J =  2 */
(PID.TID 0000.0001)                 2.826653781002625E+05,      /* J =  3 */
(PID.TID 0000.0001)                 2.888847902988777E+05,      /* J =  4 */
(PID.TID 0000.0001)                 2.944082537343438E+05,      /* J =  5 */
(PID.TID 0000.0001)                 2.992224618994463E+05,      /* J =  6 */
(PID.TID 0000.0001)                 3.033158169450409E+05,      /* J =  7 */
(PID.TID 0000.0001)                 3.066784576202870E+05,      /* J =  8 */
(PID.TID 0000.0001)                 3.093022830292655E+05,      /* J =  9 */
(PID.TID 0000.0001)                 3.111809721467461E+05,      /* J = 10 */
(PID.TID 0000.0001)                 3.123099990460912E+05,      /* J = 11 */
(PID.TID 0000.0001)                 3.126866438026091E+05,      /* J = 12 */
(PID.TID 0000.0001)                 3.123099990460912E+05,      /* J = 13 */
(PID.TID 0000.0001)                 3.111809721467461E+05,      /* J = 14 */
(PID.TID 0000.0001)                 3.093022830292655E+05,      /* J = 15 */
(PID.TID 0000.0001)                 3.066784576202870E+05,      /* J = 16 */
(PID.TID 0000.0001)                 3.033158169450409E+05,      /* J = 17 */
(PID.TID 0000.0001)                 2.992224618994463E+05,      /* J = 18 */
(PID.TID 0000.0001)                 2.944082537343438E+05,      /* J = 19 */
(PID.TID 0000.0001)                 2.888847902988777E+05,      /* J = 20 */
(PID.TID 0000.0001)                 2.826653781002625E+05,      /* J = 21 */
(PID.TID 0000.0001)                 2.757650002472408E+05,      /* J = 22 */
(PID.TID 0000.0001)                 2.682002803544621E+05       /* J = 23 */
(PID.TID 0000.0001)     ;
(PID.TID 0000.0001) dyC =  /* dyC(:,1,:,1) ( m - cartesian, degrees - spherical ) */
(PID.TID 0000.0001)   128 @  3.126866438026091E+05              /* I =  1:128 */
(PID.TID 0000.0001)     ;
(PID.TID 0000.0001) dyC =  /* dyC(1,:,1,:) ( m - cartesian, degrees - spherical ) */
(PID.TID 0000.0001)    23 @  3.126866438026091E+05              /* J =  1: 23 */
(PID.TID 0000.0001)     ;
(PID.TID 0000.0001) dxV =  /* dxV(:,1,:,1) ( m - cartesian, degrees - spherical ) */
(PID.TID 0000.0001)   128 @  2.641744258225996E+05              /* I =  1:128 */
(PID.TID 0000.0001)     ;
(PID.TID 0000.0001) dxV =  /* dxV(1,:,1,:) ( m - cartesian, degrees - spherical ) */
(PID.TID 0000.0001)                 2.641744258225996E+05,      /* J =  1 */
(PID.TID 0000.0001)                 2.720645810660936E+05,      /* J =  2 */
(PID.TID 0000.0001)                 2.792993089037565E+05,      /* J =  3 */
(PID.TID 0000.0001)                 2.858611802425402E+05,      /* J =  4 */
(PID.TID 0000.0001)                 2.917343869596373E+05,      /* J =  5 */
(PID.TID 0000.0001)                 2.969047799856344E+05,      /* J =  6 */
(PID.TID 0000.0001)                 3.013599033908587E+05,      /* J =  7 */
(PID.TID 0000.0001)                 3.050890243928043E+05,      /* J =  8 */
(PID.TID 0000.0001)                 3.080831592123453E+05,      /* J =  9 */
(PID.TID 0000.0001)                 3.103350947164461E+05,      /* J = 10 */
(PID.TID 0000.0001)                 3.118394057952309E+05,      /* J = 11 */
(PID.TID 0000.0001)     2 @  3.125924684315491E+05,             /* J = 12: 13 */
(PID.TID 0000.0001)                 3.118394057952309E+05,      /* J = 14 */
(PID.TID 0000.0001)                 3.103350947164461E+05,      /* J = 15 */
(PID.TID 0000.0001)                 3.080831592123453E+05,      /* J = 16 */
(PID.TID 0000.0001)                 3.050890243928043E+05,      /* J = 17 */
(PID.TID 0000.0001)                 3.013599033908587E+05,      /* J = 18 */
(PID.TID 0000.0001)                 2.969047799856344E+05,      /* J = 19 */
(PID.TID 0000.0001)                 2.917343869596373E+05,      /* J = 20 */
(PID.TID 0000.0001)                 2.858611802425402E+05,      /* J = 21 */
(PID.TID 0000.0001)                 2.792993089037565E+05,      /* J = 22 */
(PID.TID 0000.0001)                 2.720645810660936E+05       /* J = 23 */
(PID.TID 0000.0001)     ;
(PID.TID 0000.0001) dyU =  /* dyU(:,1,:,1) ( m - cartesian, degrees - spherical ) */
(PID.TID 0000.0001)   128 @  3.126866438026091E+05              /* I =  1:128 */
(PID.TID 0000.0001)     ;
(PID.TID 0000.0001) dyU =  /* dyU(1,:,1,:) ( m - cartesian, degrees - spherical ) */
(PID.TID 0000.0001)    23 @  3.126866438026091E+05              /* J =  1: 23 */
(PID.TID 0000.0001)     ;
(PID.TID 0000.0001) rA =  /* rA(:,1,:,1) ( m - cartesian, degrees - spherical ) */
(PID.TID 0000.0001)   128 @  8.385422607492096E+10              /* I =  1:128 */
(PID.TID 0000.0001)     ;
(PID.TID 0000.0001) rA =  /* rA(1,:,1,:) ( m - cartesian, degrees - spherical ) */
(PID.TID 0000.0001)                 8.385422607492096E+10,      /* J =  1 */
(PID.TID 0000.0001)                 8.621937547463148E+10,      /* J =  2 */
(PID.TID 0000.0001)                 8.837681484689812E+10,      /* J =  3 */
(PID.TID 0000.0001)                 9.032134673130376E+10,      /* J =  4 */
(PID.TID 0000.0001)                 9.204828658021815E+10,      /* J =  5 */
(PID.TID 0000.0001)                 9.355347404428317E+10,      /* J =  6 */
(PID.TID 0000.0001)                 9.483328299505896E+10,      /* J =  7 */
(PID.TID 0000.0001)                 9.588463026068500E+10,      /* J =  8 */
(PID.TID 0000.0001)                 9.670498305351135E+10,      /* J =  9 */
(PID.TID 0000.0001)                 9.729236507180571E+10,      /* J = 10 */
(PID.TID 0000.0001)                 9.764536126083739E+10,      /* J = 11 */
(PID.TID 0000.0001)                 9.776312122186816E+10,      /* J = 12 */
(PID.TID 0000.0001)                 9.764536126083739E+10,      /* J = 13 */
(PID.TID 0000.0001)                 9.729236507180571E+10,      /* J = 14 */
(PID.TID 0000.0001)                 9.670498305351135E+10,      /* J = 15 */
(PID.TID 0000.0001)                 9.588463026068500E+10,      /* J = 16 */
(PID.TID 0000.0001)                 9.483328299505896E+10,      /* J = 17 */
(PID.TID 0000.0001)                 9.355347404428317E+10,      /* J = 18 */
(PID.TID 0000.0001)                 9.204828658021815E+10,      /* J = 19 */
(PID.TID 0000.0001)                 9.032134673130376E+10,      /* J = 20 */
(PID.TID 0000.0001)                 8.837681484689812E+10,      /* J = 21 */
(PID.TID 0000.0001)                 8.621937547463148E+10,      /* J = 22 */
(PID.TID 0000.0001)                 8.385422607492096E+10       /* J = 23 */
(PID.TID 0000.0001)     ;
(PID.TID 0000.0001) rAw =  /* rAw(:,1,:,1) ( m - cartesian, degrees - spherical ) */
(PID.TID 0000.0001)   128 @  8.385422607492096E+10              /* I =  1:128 */
(PID.TID 0000.0001)     ;
(PID.TID 0000.0001) rAw =  /* rAw(1,:,1,:) ( m - cartesian, degrees - spherical ) */
(PID.TID 0000.0001)                 8.385422607492096E+10,      /* J =  1 */
(PID.TID 0000.0001)                 8.621937547463148E+10,      /* J =  2 */
(PID.TID 0000.0001)                 8.837681484689812E+10,      /* J =  3 */
(PID.TID 0000.0001)                 9.032134673130376E+10,      /* J =  4 */
(PID.TID 0000.0001)                 9.204828658021815E+10,      /* J =  5 */
(PID.TID 0000.0001)                 9.355347404428317E+10,      /* J =  6 */
(PID.TID 0000.0001)                 9.483328299505896E+10,      /* J =  7 */
(PID.TID 0000.0001)                 9.588463026068500E+10,      /* J =  8 */
(PID.TID 0000.0001)                 9.670498305351135E+10,      /* J =  9 */
(PID.TID 0000.0001)                 9.729236507180571E+10,      /* J = 10 */
(PID.TID 0000.0001)                 9.764536126083739E+10,      /* J = 11 */
(PID.TID 0000.0001)                 9.776312122186816E+10,      /* J = 12 */
(PID.TID 0000.0001)                 9.764536126083739E+10,      /* J = 13 */
(PID.TID 0000.0001)                 9.729236507180571E+10,      /* J = 14 */
(PID.TID 0000.0001)                 9.670498305351135E+10,      /* J = 15 */
(PID.TID 0000.0001)                 9.588463026068500E+10,      /* J = 16 */
(PID.TID 0000.0001)                 9.483328299505896E+10,      /* J = 17 */
(PID.TID 0000.0001)                 9.355347404428317E+10,      /* J = 18 */
(PID.TID 0000.0001)                 9.204828658021815E+10,      /* J = 19 */
(PID.TID 0000.0001)                 9.032134673130376E+10,      /* J = 20 */
(PID.TID 0000.0001)                 8.837681484689812E+10,      /* J = 21 */
(PID.TID 0000.0001)                 8.621937547463148E+10,      /* J = 22 */
(PID.TID 0000.0001)                 8.385422607492096E+10       /* J = 23 */
(PID.TID 0000.0001)     ;
(PID.TID 0000.0001) rAs =  /* rAs(:,1,:,1) ( m - cartesian, degrees - spherical ) */
(PID.TID 0000.0001)   128 @  8.259552151423444E+10              /* I =  1:128 */
(PID.TID 0000.0001)     ;
(PID.TID 0000.0001) rAs =  /* rAs(1,:,1,:) ( m - cartesian, degrees - spherical ) */
(PID.TID 0000.0001)                 8.259552151423444E+10,      /* J =  1 */
(PID.TID 0000.0001)                 8.506241998533159E+10,      /* J =  2 */
(PID.TID 0000.0001)                 8.732439563609566E+10,      /* J =  3 */
(PID.TID 0000.0001)                 8.937599916905872E+10,      /* J =  4 */
(PID.TID 0000.0001)                 9.121228809161066E+10,      /* J =  5 */
(PID.TID 0000.0001)                 9.282883862289705E+10,      /* J =  6 */
(PID.TID 0000.0001)                 9.422175635109474E+10,      /* J =  7 */
(PID.TID 0000.0001)                 9.538768561539165E+10,      /* J =  8 */
(PID.TID 0000.0001)                 9.632381759006650E+10,      /* J =  9 */
(PID.TID 0000.0001)                 9.702789705119698E+10,      /* J = 10 */
(PID.TID 0000.0001)                 9.749822780969106E+10,      /* J = 11 */
(PID.TID 0000.0001)     2 @  9.773367679755542E+10,             /* J = 12: 13 */
(PID.TID 0000.0001)                 9.749822780969106E+10,      /* J = 14 */
(PID.TID 0000.0001)                 9.702789705119698E+10,      /* J = 15 */
(PID.TID 0000.0001)                 9.632381759006650E+10,      /* J = 16 */
(PID.TID 0000.0001)                 9.538768561539165E+10,      /* J = 17 */
(PID.TID 0000.0001)                 9.422175635109474E+10,      /* J = 18 */
(PID.TID 0000.0001)                 9.282883862289705E+10,      /* J = 19 */
(PID.TID 0000.0001)                 9.121228809161066E+10,      /* J = 20 */
(PID.TID 0000.0001)                 8.937599916905872E+10,      /* J = 21 */
(PID.TID 0000.0001)                 8.732439563609566E+10,      /* J = 22 */
(PID.TID 0000.0001)                 8.506241998533159E+10       /* J = 23 */
(PID.TID 0000.0001)     ;
(PID.TID 0000.0001) 
(PID.TID 0000.0001)  MDSREADFIELD: opening global file: pickup.0000051840
(PID.TID 0000.0001)  MDSREADFIELD: opening global file: pickup.0000051840
(PID.TID 0000.0001)  MDSREADFIELD: opening global file: pickup.0000051840
(PID.TID 0000.0001)  MDSREADFIELD: opening global file: pickup.0000051840
(PID.TID 0000.0001)  MDSREADFIELD: opening global file: pickup.0000051840
(PID.TID 0000.0001)  MDSREADFIELD: opening global file: pickup.0000051840
(PID.TID 0000.0001)  MDSREADFIELD: opening global file: pickup.0000051840
(PID.TID 0000.0001)  MDSREADFIELD: opening global file: pickup.0000051840
(PID.TID 0000.0001)  MDSREADFIELD: opening global file: pickup.0000051840
(PID.TID 0000.0001)  MDSREADFIELD: opening global file: pickup.0000051840
(PID.TID 0000.0001)  MDSREADFIELD: opening global file: pickup.0000051840
(PID.TID 0000.0001)  MDSREADFIELD: opening global file: pickup.0000051840
(PID.TID 0000.0001)  MDSREADFIELD: opening global file: pickup.0000051840
(PID.TID 0000.0001) // =======================================================
(PID.TID 0000.0001) // Model current state
(PID.TID 0000.0001) // =======================================================
(PID.TID 0000.0001) 
(PID.TID 0000.0001) // =======================================================
(PID.TID 0000.0001) // Begin MONITOR dynamic field statistics
(PID.TID 0000.0001) // =======================================================
(PID.TID 0000.0001) %MON time_tsnumber                =                 51840
(PID.TID 0000.0001) %MON time_secondsf                =   3.1104000000000E+07
(PID.TID 0000.0001) %MON dynstat_eta_max              =   5.6007648328942E+02
(PID.TID 0000.0001) %MON dynstat_eta_min              =  -1.1900896404607E+03
(PID.TID 0000.0001) %MON dynstat_eta_mean             =  -5.1650890314566E-13
(PID.TID 0000.0001) %MON dynstat_eta_sd               =   3.1717503159601E+02
(PID.TID 0000.0001) %MON dynstat_eta_del2             =   2.1277795526501E+01
(PID.TID 0000.0001) %MON dynstat_uvel_max             =   6.8752013681252E+01
(PID.TID 0000.0001) %MON dynstat_uvel_min             =  -5.3327593619244E+01
(PID.TID 0000.0001) %MON dynstat_uvel_mean            =   9.8880384871274E+00
(PID.TID 0000.0001) %MON dynstat_uvel_sd              =   2.0918333973708E+01
(PID.TID 0000.0001) %MON dynstat_uvel_del2            =   1.5799461509292E+00
(PID.TID 0000.0001) %MON dynstat_vvel_max             =   2.6953670057328E+01
(PID.TID 0000.0001) %MON dynstat_vvel_min             =  -3.7046687103927E+01
(PID.TID 0000.0001) %MON dynstat_vvel_mean            =   1.2534447075104E-02
(PID.TID 0000.0001) %MON dynstat_vvel_sd              =   5.9945447350109E+00
(PID.TID 0000.0001) %MON dynstat_vvel_del2            =   8.6427732073630E-01
(PID.TID 0000.0001) %MON dynstat_wvel_max             =   1.5819787700342E+00
(PID.TID 0000.0001) %MON dynstat_wvel_min             =  -2.8811147246139E+00
(PID.TID 0000.0001) %MON dynstat_wvel_mean            =   2.0607297091346E-18
(PID.TID 0000.0001) %MON dynstat_wvel_sd              =   1.6811964488320E-01
(PID.TID 0000.0001) %MON dynstat_wvel_del2            =   4.0650285486787E-02
(PID.TID 0000.0001) %MON dynstat_theta_max            =   4.0516279556456E+02
(PID.TID 0000.0001) %MON dynstat_theta_min            =   2.7722313940156E+02
(PID.TID 0000.0001) %MON dynstat_theta_mean           =   3.1126258044278E+02
(PID.TID 0000.0001) %MON dynstat_theta_sd             =   3.5663860068998E+01
(PID.TID 0000.0001) %MON dynstat_theta_del2           =   3.6908009875551E-01
(PID.TID 0000.0001) %MON dynstat_salt_max             =   1.2378188477450E+01
(PID.TID 0000.0001) %MON dynstat_salt_min             =  -1.7986661948934E-01
(PID.TID 0000.0001) %MON dynstat_salt_mean            =   8.5450715386365E-01
(PID.TID 0000.0001) %MON dynstat_salt_sd              =   1.2845492720070E+00
(PID.TID 0000.0001) %MON dynstat_salt_del2            =   6.0072414886663E-02
(PID.TID 0000.0001) %MON advcfl_uvel_max              =   1.3208417384889E-01
(PID.TID 0000.0001) %MON advcfl_vvel_max              =   7.1087181697432E-02
(PID.TID 0000.0001) %MON advcfl_wvel_max              =   6.2860684900668E-02
(PID.TID 0000.0001) %MON advcfl_W_hf_max              =   1.7929200371546E-01
(PID.TID 0000.0001) %MON pe_b_mean                    =   5.0300000333962E-01
(PID.TID 0000.0001) %MON ke_max                       =   2.3520479470727E+03
(PID.TID 0000.0001) %MON ke_mean                      =   2.8496923866073E+02
(PID.TID 0000.0001) %MON ke_vol                       =   2.7279762099332E+19
(PID.TID 0000.0001) %MON vort_r_min                   =  -1.7480857442499E-04
(PID.TID 0000.0001) %MON vort_r_max                   =   1.4052445827260E-04
(PID.TID 0000.0001) %MON vort_a_mean                  =  -2.9752610458881E-06
(PID.TID 0000.0001) %MON vort_a_sd                    =   6.0434213775828E-05
(PID.TID 0000.0001) %MON vort_p_mean                  =  -3.0340712230262E-06
(PID.TID 0000.0001) %MON vort_p_sd                    =   6.3330277890428E-05
(PID.TID 0000.0001) %MON surfExpan_theta_mean         =  -7.1066592942119E-04
(PID.TID 0000.0001) %MON surfExpan_salt_mean          =   1.1584565687837E-04
(PID.TID 0000.0001) %MON surfExpan_Heat_mean          =  -7.1674639344671E-02
(PID.TID 0000.0001) %MON En_Budget_T2PE_mean          =   1.4765577129289E+00
(PID.TID 0000.0001) // =======================================================
(PID.TID 0000.0001) // End MONITOR dynamic field statistics
(PID.TID 0000.0001) // =======================================================
 cg2d: Sum(rhs),rhsMax =   3.08500602841377E-09  3.40618124163646E+03
(PID.TID 0000.0001)                    cg2d_init_res =    5.97932843456584E+02
(PID.TID 0000.0001)                       cg2d_iters =    15
(PID.TID 0000.0001)                         cg2d_res =    9.38927799277330E-12
(PID.TID 0000.0001) // =======================================================
(PID.TID 0000.0001) // Begin MONITOR dynamic field statistics
(PID.TID 0000.0001) // =======================================================
(PID.TID 0000.0001) %MON time_tsnumber                =                 51841
(PID.TID 0000.0001) %MON time_secondsf                =   3.1104600000000E+07
(PID.TID 0000.0001) %MON dynstat_eta_max              =   5.6032664796896E+02
(PID.TID 0000.0001) %MON dynstat_eta_min              =  -1.1845893054986E+03
(PID.TID 0000.0001) %MON dynstat_eta_mean             =  -5.4053257305942E-13
(PID.TID 0000.0001) %MON dynstat_eta_sd               =   3.1737037138604E+02
(PID.TID 0000.0001) %MON dynstat_eta_del2             =   2.1267351232775E+01
(PID.TID 0000.0001) %MON dynstat_uvel_max             =   6.8679498696579E+01
(PID.TID 0000.0001) %MON dynstat_uvel_min             =  -5.3361189843504E+01
(PID.TID 0000.0001) %MON dynstat_uvel_mean            =   9.8879989767087E+00
(PID.TID 0000.0001) %MON dynstat_uvel_sd              =   2.0918857702346E+01
(PID.TID 0000.0001) %MON dynstat_uvel_del2            =   1.5802069484603E+00
(PID.TID 0000.0001) %MON dynstat_vvel_max             =   2.7218972839579E+01
(PID.TID 0000.0001) %MON dynstat_vvel_min             =  -3.6877971524912E+01
(PID.TID 0000.0001) %MON dynstat_vvel_mean            =   1.2696777446343E-02
(PID.TID 0000.0001) %MON dynstat_vvel_sd              =   5.9918487938196E+00
(PID.TID 0000.0001) %MON dynstat_vvel_del2            =   8.6393749374307E-01
(PID.TID 0000.0001) %MON dynstat_wvel_max             =   1.5652815725973E+00
(PID.TID 0000.0001) %MON dynstat_wvel_min             =  -2.9093739373930E+00
(PID.TID 0000.0001) %MON dynstat_wvel_mean            =   3.0118357287353E-18
(PID.TID 0000.0001) %MON dynstat_wvel_sd              =   1.6841858397184E-01
(PID.TID 0000.0001) %MON dynstat_wvel_del2            =   4.0670677103648E-02
(PID.TID 0000.0001) %MON dynstat_theta_max            =   4.0509609748282E+02
(PID.TID 0000.0001) %MON dynstat_theta_min            =   2.7722611962681E+02
(PID.TID 0000.0001) %MON dynstat_theta_mean           =   3.1126272107317E+02
(PID.TID 0000.0001) %MON dynstat_theta_sd             =   3.5663722095571E+01
(PID.TID 0000.0001) %MON dynstat_theta_del2           =   3.6865647531773E-01
(PID.TID 0000.0001) %MON dynstat_salt_max             =   1.2380331739943E+01
(PID.TID 0000.0001) %MON dynstat_salt_min             =  -1.8129377539654E-01
(PID.TID 0000.0001) %MON dynstat_salt_mean            =   8.5446030297106E-01
(PID.TID 0000.0001) %MON dynstat_salt_sd              =   1.2845045000831E+00
(PID.TID 0000.0001) %MON dynstat_salt_del2            =   5.9998468579078E-02
(PID.TID 0000.0001) %MON advcfl_uvel_max              =   1.3178592701248E-01
(PID.TID 0000.0001) %MON advcfl_vvel_max              =   7.0763441143061E-02
(PID.TID 0000.0001) %MON advcfl_wvel_max              =   6.3477249543120E-02
(PID.TID 0000.0001) %MON advcfl_W_hf_max              =   1.7904712915344E-01
(PID.TID 0000.0001) %MON pe_b_mean                    =   5.0361976316855E-01
(PID.TID 0000.0001) %MON ke_max                       =   2.3615534995535E+03
(PID.TID 0000.0001) %MON ke_mean                      =   2.8496427885262E+02
(PID.TID 0000.0001) %MON ke_vol                       =   2.7279762099332E+19
(PID.TID 0000.0001) %MON vort_r_min                   =  -1.7839037243790E-04
(PID.TID 0000.0001) %MON vort_r_max                   =   1.4046655066550E-04
(PID.TID 0000.0001) %MON vort_a_mean                  =  -2.9752618796664E-06
(PID.TID 0000.0001) %MON vort_a_sd                    =   6.0435403527453E-05
(PID.TID 0000.0001) %MON vort_p_mean                  =  -3.0340720732853E-06
(PID.TID 0000.0001) %MON vort_p_sd                    =   6.3331381775816E-05
(PID.TID 0000.0001) %MON surfExpan_theta_mean         =  -6.4222678515613E-04
(PID.TID 0000.0001) %MON surfExpan_salt_mean          =   7.5113437769297E-05
(PID.TID 0000.0001) %MON surfExpan_Heat_mean          =  -6.4772168325332E-02
(PID.TID 0000.0001) %MON En_Budget_T2PE_mean          =   1.4602155942335E+00
(PID.TID 0000.0001) // =======================================================
(PID.TID 0000.0001) // End MONITOR dynamic field statistics
(PID.TID 0000.0001) // =======================================================
 cg2d: Sum(rhs),rhsMax =   2.50292941927910E-09  3.35886246431490E+03
(PID.TID 0000.0001)                    cg2d_init_res =    5.96222424438348E+02
(PID.TID 0000.0001)                       cg2d_iters =    15
(PID.TID 0000.0001)                         cg2d_res =    9.37765820693986E-12
(PID.TID 0000.0001) // =======================================================
(PID.TID 0000.0001) // Begin MONITOR dynamic field statistics
(PID.TID 0000.0001) // =======================================================
(PID.TID 0000.0001) %MON time_tsnumber                =                 51842
(PID.TID 0000.0001) %MON time_secondsf                =   3.1105200000000E+07
(PID.TID 0000.0001) %MON dynstat_eta_max              =   5.5997747761216E+02
(PID.TID 0000.0001) %MON dynstat_eta_min              =  -1.1758826681251E+03
(PID.TID 0000.0001) %MON dynstat_eta_mean             =  -7.8076927219694E-13
(PID.TID 0000.0001) %MON dynstat_eta_sd               =   3.1755156381009E+02
(PID.TID 0000.0001) %MON dynstat_eta_del2             =   2.1220232846589E+01
(PID.TID 0000.0001) %MON dynstat_uvel_max             =   6.8939542571766E+01
(PID.TID 0000.0001) %MON dynstat_uvel_min             =  -5.3646522133368E+01
(PID.TID 0000.0001) %MON dynstat_uvel_mean            =   9.8879567233367E+00
(PID.TID 0000.0001) %MON dynstat_uvel_sd              =   2.0919334676721E+01
(PID.TID 0000.0001) %MON dynstat_uvel_del2            =   1.5803757631660E+00
(PID.TID 0000.0001) %MON dynstat_vvel_max             =   2.7545879506219E+01
(PID.TID 0000.0001) %MON dynstat_vvel_min             =  -3.6733299319003E+01
(PID.TID 0000.0001) %MON dynstat_vvel_mean            =   1.2859964452256E-02
(PID.TID 0000.0001) %MON dynstat_vvel_sd              =   5.9891623179615E+00
(PID.TID 0000.0001) %MON dynstat_vvel_del2            =   8.6362340340981E-01
(PID.TID 0000.0001) %MON dynstat_wvel_max             =   1.5372664462933E+00
(PID.TID 0000.0001) %MON dynstat_wvel_min             =  -2.9340067684352E+00
(PID.TID 0000.0001) %MON dynstat_wvel_mean            =   2.3777650490015E-18
(PID.TID 0000.0001) %MON dynstat_wvel_sd              =   1.6828742022073E-01
(PID.TID 0000.0001) %MON dynstat_wvel_del2            =   4.0669072573137E-02
(PID.TID 0000.0001) %MON dynstat_theta_max            =   4.0502460990937E+02
(PID.TID 0000.0001) %MON dynstat_theta_min            =   2.7722914577732E+02
(PID.TID 0000.0001) %MON dynstat_theta_mean           =   3.1126284673043E+02
(PID.TID 0000.0001) %MON dynstat_theta_sd             =   3.5663596393065E+01
(PID.TID 0000.0001) %MON dynstat_theta_del2           =   3.6842112725344E-01
(PID.TID 0000.0001) %MON dynstat_salt_max             =   1.2379936318642E+01
(PID.TID 0000.0001) %MON dynstat_salt_min             =  -1.8171863288433E-01
(PID.TID 0000.0001) %MON dynstat_salt_mean            =   8.5441865712701E-01
(PID.TID 0000.0001) %MON dynstat_salt_sd              =   1.2845316696753E+00
(PID.TID 0000.0001) %MON dynstat_salt_del2            =   5.9956839961283E-02
(PID.TID 0000.0001) %MON advcfl_uvel_max              =   1.3228491322825E-01
(PID.TID 0000.0001) %MON advcfl_vvel_max              =   7.0485836310024E-02
(PID.TID 0000.0001) %MON advcfl_wvel_max              =   6.4014693129495E-02
(PID.TID 0000.0001) %MON advcfl_W_hf_max              =   1.7854393440795E-01
(PID.TID 0000.0001) %MON pe_b_mean                    =   5.0419497839114E-01
(PID.TID 0000.0001) %MON ke_max                       =   2.3692096744732E+03
(PID.TID 0000.0001) %MON ke_mean                      =   2.8495837552973E+02
(PID.TID 0000.0001) %MON ke_vol                       =   2.7279762099332E+19
(PID.TID 0000.0001) %MON vort_r_min                   =  -1.8150981810239E-04
(PID.TID 0000.0001) %MON vort_r_max                   =   1.4159098231972E-04
(PID.TID 0000.0001) %MON vort_a_mean                  =  -2.9752627711400E-06
(PID.TID 0000.0001) %MON vort_a_sd                    =   6.0436485717539E-05
(PID.TID 0000.0001) %MON vort_p_mean                  =  -3.0340729823800E-06
(PID.TID 0000.0001) %MON vort_p_sd                    =   6.3332389231650E-05
(PID.TID 0000.0001) %MON surfExpan_theta_mean         =  -5.9602287772896E-04
(PID.TID 0000.0001) %MON surfExpan_salt_mean          =   6.4370609834378E-05
(PID.TID 0000.0001) %MON surfExpan_Heat_mean          =  -6.0112245478228E-02
(PID.TID 0000.0001) %MON En_Budget_T2PE_mean          =   1.4415367754896E+00
(PID.TID 0000.0001) // =======================================================
(PID.TID 0000.0001) // End MONITOR dynamic field statistics
(PID.TID 0000.0001) // =======================================================
 cg2d: Sum(rhs),rhsMax =   2.61934474110603E-09  3.36883029473464E+03
(PID.TID 0000.0001)                    cg2d_init_res =    7.07719634645221E+02
(PID.TID 0000.0001)                       cg2d_iters =    15
(PID.TID 0000.0001)                         cg2d_res =    1.03934194087659E-11
(PID.TID 0000.0001) // =======================================================
(PID.TID 0000.0001) // Begin MONITOR dynamic field statistics
(PID.TID 0000.0001) // =======================================================
(PID.TID 0000.0001) %MON time_tsnumber                =                 51843
(PID.TID 0000.0001) %MON time_secondsf                =   3.1105800000000E+07
(PID.TID 0000.0001) %MON dynstat_eta_max              =   5.5903960362514E+02
(PID.TID 0000.0001) %MON dynstat_eta_min              =  -1.1613273676401E+03
(PID.TID 0000.0001) %MON dynstat_eta_mean             =  -4.6846156331816E-13
(PID.TID 0000.0001) %MON dynstat_eta_sd               =   3.1771529173034E+02
(PID.TID 0000.0001) %MON dynstat_eta_del2             =   2.1148160060812E+01
(PID.TID 0000.0001) %MON dynstat_uvel_max             =   6.9161990204897E+01
(PID.TID 0000.0001) %MON dynstat_uvel_min             =  -5.3901086774121E+01
(PID.TID 0000.0001) %MON dynstat_uvel_mean            =   9.8879104362943E+00
(PID.TID 0000.0001) %MON dynstat_uvel_sd              =   2.0919769191097E+01
(PID.TID 0000.0001) %MON dynstat_uvel_del2            =   1.5805855402105E+00
(PID.TID 0000.0001) %MON dynstat_vvel_max             =   2.7818486313634E+01
(PID.TID 0000.0001) %MON dynstat_vvel_min             =  -3.6800543619117E+01
(PID.TID 0000.0001) %MON dynstat_vvel_mean            =   1.3019235974291E-02
(PID.TID 0000.0001) %MON dynstat_vvel_sd              =   5.9864465346028E+00
(PID.TID 0000.0001) %MON dynstat_vvel_del2            =   8.6334306336861E-01
(PID.TID 0000.0001) %MON dynstat_wvel_max             =   1.5019436789044E+00
(PID.TID 0000.0001) %MON dynstat_wvel_min             =  -2.9563945613075E+00
(PID.TID 0000.0001) %MON dynstat_wvel_mean            =  -6.6577421372042E-18
(PID.TID 0000.0001) %MON dynstat_wvel_sd              =   1.6791147419410E-01
(PID.TID 0000.0001) %MON dynstat_wvel_del2            =   4.0650702454046E-02
(PID.TID 0000.0001) %MON dynstat_theta_max            =   4.0494754596967E+02
(PID.TID 0000.0001) %MON dynstat_theta_min            =   2.7723228277435E+02
(PID.TID 0000.0001) %MON dynstat_theta_mean           =   3.1126296623272E+02
(PID.TID 0000.0001) %MON dynstat_theta_sd             =   3.5663475107908E+01
(PID.TID 0000.0001) %MON dynstat_theta_del2           =   3.6818380666853E-01
(PID.TID 0000.0001) %MON dynstat_salt_max             =   1.2377078843984E+01
(PID.TID 0000.0001) %MON dynstat_salt_min             =  -1.8165802293726E-01
(PID.TID 0000.0001) %MON dynstat_salt_mean            =   8.5437990698396E-01
(PID.TID 0000.0001) %MON dynstat_salt_sd              =   1.2845431768660E+00
(PID.TID 0000.0001) %MON dynstat_salt_del2            =   5.9923263468006E-02
(PID.TID 0000.0001) %MON advcfl_uvel_max              =   1.3271175774663E-01
(PID.TID 0000.0001) %MON advcfl_vvel_max              =   7.0614868300575E-02
(PID.TID 0000.0001) %MON advcfl_wvel_max              =   6.4503154064891E-02
(PID.TID 0000.0001) %MON advcfl_W_hf_max              =   1.7796245359139E-01
(PID.TID 0000.0001) %MON pe_b_mean                    =   5.0471503299645E-01
(PID.TID 0000.0001) %MON ke_max                       =   2.3750157507096E+03
(PID.TID 0000.0001) %MON ke_mean                      =   2.8495138250383E+02
(PID.TID 0000.0001) %MON ke_vol                       =   2.7279762099332E+19
(PID.TID 0000.0001) %MON vort_r_min                   =  -1.8411646215068E-04
(PID.TID 0000.0001) %MON vort_r_max                   =   1.4413422513007E-04
(PID.TID 0000.0001) %MON vort_a_mean                  =  -2.9752636786921E-06
(PID.TID 0000.0001) %MON vort_a_sd                    =   6.0437386106374E-05
(PID.TID 0000.0001) %MON vort_p_mean                  =  -3.0340739078712E-06
(PID.TID 0000.0001) %MON vort_p_sd                    =   6.3333233654857E-05
(PID.TID 0000.0001) %MON surfExpan_theta_mean         =  -5.7317585244963E-04
(PID.TID 0000.0001) %MON surfExpan_salt_mean          =   6.6992180543110E-05
(PID.TID 0000.0001) %MON surfExpan_Heat_mean          =  -5.7807995015109E-02
(PID.TID 0000.0001) %MON En_Budget_T2PE_mean          =   1.4222731173855E+00
(PID.TID 0000.0001) // =======================================================
(PID.TID 0000.0001) // End MONITOR dynamic field statistics
(PID.TID 0000.0001) // =======================================================
 cg2d: Sum(rhs),rhsMax =   3.49245965480804E-09  3.37858203976965E+03
(PID.TID 0000.0001)                    cg2d_init_res =    8.20826030410497E+02
(PID.TID 0000.0001)                       cg2d_iters =    15
(PID.TID 0000.0001)                         cg2d_res =    1.13442819031023E-11
(PID.TID 0000.0001) // =======================================================
(PID.TID 0000.0001) // Begin MONITOR dynamic field statistics
(PID.TID 0000.0001) // =======================================================
(PID.TID 0000.0001) %MON time_tsnumber                =                 51844
(PID.TID 0000.0001) %MON time_secondsf                =   3.1106400000000E+07
(PID.TID 0000.0001) %MON dynstat_eta_max              =   5.5809292447788E+02
(PID.TID 0000.0001) %MON dynstat_eta_min              =  -1.1857897219167E+03
(PID.TID 0000.0001) %MON dynstat_eta_mean             =  -4.5644972836129E-13
(PID.TID 0000.0001) %MON dynstat_eta_sd               =   3.1786941340876E+02
(PID.TID 0000.0001) %MON dynstat_eta_del2             =   2.1078153346084E+01
(PID.TID 0000.0001) %MON dynstat_uvel_max             =   6.9346495144917E+01
(PID.TID 0000.0001) %MON dynstat_uvel_min             =  -5.4126839451883E+01
(PID.TID 0000.0001) %MON dynstat_uvel_mean            =   9.8878601309335E+00
(PID.TID 0000.0001) %MON dynstat_uvel_sd              =   2.0920171442416E+01
(PID.TID 0000.0001) %MON dynstat_uvel_del2            =   1.5806591660987E+00
(PID.TID 0000.0001) %MON dynstat_vvel_max             =   2.8036626062039E+01
(PID.TID 0000.0001) %MON dynstat_vvel_min             =  -3.6852308596938E+01
(PID.TID 0000.0001) %MON dynstat_vvel_mean            =   1.3174590036040E-02
(PID.TID 0000.0001) %MON dynstat_vvel_sd              =   5.9836607636161E+00
(PID.TID 0000.0001) %MON dynstat_vvel_del2            =   8.6314759388928E-01
(PID.TID 0000.0001) %MON dynstat_wvel_max             =   1.4620703867849E+00
(PID.TID 0000.0001) %MON dynstat_wvel_min             =  -2.9765283282991E+00
(PID.TID 0000.0001) %MON dynstat_wvel_mean            =   1.5851766993343E-18
(PID.TID 0000.0001) %MON dynstat_wvel_sd              =   1.6748103577905E-01
(PID.TID 0000.0001) %MON dynstat_wvel_del2            =   4.0626141938406E-02
(PID.TID 0000.0001) %MON dynstat_theta_max            =   4.0492025421503E+02
(PID.TID 0000.0001) %MON dynstat_theta_min            =   2.7723089368148E+02
(PID.TID 0000.0001) %MON dynstat_theta_mean           =   3.1126308169078E+02
(PID.TID 0000.0001) %MON dynstat_theta_sd             =   3.5663355588822E+01
(PID.TID 0000.0001) %MON dynstat_theta_del2           =   3.6796077400165E-01
(PID.TID 0000.0001) %MON dynstat_salt_max             =   1.2371721093194E+01
(PID.TID 0000.0001) %MON dynstat_salt_min             =  -1.8110669250791E-01
(PID.TID 0000.0001) %MON dynstat_salt_mean            =   8.5434310499943E-01
(PID.TID 0000.0001) %MON dynstat_salt_sd              =   1.2845612874597E+00
(PID.TID 0000.0001) %MON dynstat_salt_del2            =   5.9880908326749E-02
(PID.TID 0000.0001) %MON advcfl_uvel_max              =   1.3306579577865E-01
(PID.TID 0000.0001) %MON advcfl_vvel_max              =   7.0714197732478E-02
(PID.TID 0000.0001) %MON advcfl_wvel_max              =   6.4942436253798E-02
(PID.TID 0000.0001) %MON advcfl_W_hf_max              =   1.7729138942454E-01
(PID.TID 0000.0001) %MON pe_b_mean                    =   5.0520481990414E-01
(PID.TID 0000.0001) %MON ke_max                       =   2.3789571197064E+03
(PID.TID 0000.0001) %MON ke_mean                      =   2.8494327950924E+02
(PID.TID 0000.0001) %MON ke_vol                       =   2.7279762099332E+19
(PID.TID 0000.0001) %MON vort_r_min                   =  -1.8619852897871E-04
(PID.TID 0000.0001) %MON vort_r_max                   =   1.4647911089058E-04
(PID.TID 0000.0001) %MON vort_a_mean                  =  -2.9752645927303E-06
(PID.TID 0000.0001) %MON vort_a_sd                    =   6.0438090823157E-05
(PID.TID 0000.0001) %MON vort_p_mean                  =  -3.0340748399766E-06
(PID.TID 0000.0001) %MON vort_p_sd                    =   6.3333906285008E-05
(PID.TID 0000.0001) %MON surfExpan_theta_mean         =  -5.6442093097697E-04
(PID.TID 0000.0001) %MON surfExpan_salt_mean          =   6.7347285082840E-05
(PID.TID 0000.0001) %MON surfExpan_Heat_mean          =  -5.6925012149245E-02
(PID.TID 0000.0001) %MON En_Budget_T2PE_mean          =   1.4029096518311E+00
(PID.TID 0000.0001) // =======================================================
(PID.TID 0000.0001) // End MONITOR dynamic field statistics
(PID.TID 0000.0001) // =======================================================
 cg2d: Sum(rhs),rhsMax =   3.02679836750031E-09  3.38677151980782E+03
(PID.TID 0000.0001)                    cg2d_init_res =    8.82235836781781E+02
(PID.TID 0000.0001)                       cg2d_iters =    15
(PID.TID 0000.0001)                         cg2d_res =    1.19383463390131E-11
(PID.TID 0000.0001) // =======================================================
(PID.TID 0000.0001) // Begin MONITOR dynamic field statistics
(PID.TID 0000.0001) // =======================================================
(PID.TID 0000.0001) %MON time_tsnumber                =                 51845
(PID.TID 0000.0001) %MON time_secondsf                =   3.1107000000000E+07
(PID.TID 0000.0001) %MON dynstat_eta_max              =   5.5946768498460E+02
(PID.TID 0000.0001) %MON dynstat_eta_min              =  -1.2117083558274E+03
(PID.TID 0000.0001) %MON dynstat_eta_mean             =  -6.4863908767130E-13
(PID.TID 0000.0001) %MON dynstat_eta_sd               =   3.1802364696742E+02
(PID.TID 0000.0001) %MON dynstat_eta_del2             =   2.1041205485958E+01
(PID.TID 0000.0001) %MON dynstat_uvel_max             =   6.9492686323112E+01
(PID.TID 0000.0001) %MON dynstat_uvel_min             =  -5.4326374761158E+01
(PID.TID 0000.0001) %MON dynstat_uvel_mean            =   9.8878061788088E+00
(PID.TID 0000.0001) %MON dynstat_uvel_sd              =   2.0920547145846E+01
(PID.TID 0000.0001) %MON dynstat_uvel_del2            =   1.5809934636218E+00
(PID.TID 0000.0001) %MON dynstat_vvel_max             =   2.8200103729952E+01
(PID.TID 0000.0001) %MON dynstat_vvel_min             =  -3.6888795545851E+01
(PID.TID 0000.0001) %MON dynstat_vvel_mean            =   1.3326607621366E-02
(PID.TID 0000.0001) %MON dynstat_vvel_sd              =   5.9807802202080E+00
(PID.TID 0000.0001) %MON dynstat_vvel_del2            =   8.6291278062173E-01
(PID.TID 0000.0001) %MON dynstat_wvel_max             =   1.4186164428209E+00
(PID.TID 0000.0001) %MON dynstat_wvel_min             =  -2.9943558050406E+00
(PID.TID 0000.0001) %MON dynstat_wvel_mean            =  -9.0355071862058E-18
(PID.TID 0000.0001) %MON dynstat_wvel_sd              =   1.6709020322627E-01
(PID.TID 0000.0001) %MON dynstat_wvel_del2            =   4.0611451308647E-02
(PID.TID 0000.0001) %MON dynstat_theta_max            =   4.0488869794788E+02
(PID.TID 0000.0001) %MON dynstat_theta_min            =   2.7722807449741E+02
(PID.TID 0000.0001) %MON dynstat_theta_mean           =   3.1126318773150E+02
(PID.TID 0000.0001) %MON dynstat_theta_sd             =   3.5663243150569E+01
(PID.TID 0000.0001) %MON dynstat_theta_del2           =   3.6778166565064E-01
(PID.TID 0000.0001) %MON dynstat_salt_max             =   1.2363868887792E+01
(PID.TID 0000.0001) %MON dynstat_salt_min             =  -1.8005255401735E-01
(PID.TID 0000.0001) %MON dynstat_salt_mean            =   8.5430956280885E-01
(PID.TID 0000.0001) %MON dynstat_salt_sd              =   1.2845849313389E+00
(PID.TID 0000.0001) %MON dynstat_salt_del2            =   5.9829538017381E-02
(PID.TID 0000.0001) %MON advcfl_uvel_max              =   1.3334631529765E-01
(PID.TID 0000.0001) %MON advcfl_vvel_max              =   7.0784210858340E-02
(PID.TID 0000.0001) %MON advcfl_wvel_max              =   6.5331399382703E-02
(PID.TID 0000.0001) %MON advcfl_W_hf_max              =   1.7651809773660E-01
(PID.TID 0000.0001) %MON pe_b_mean                    =   5.0569520015227E-01
(PID.TID 0000.0001) %MON ke_max                       =   2.3810183681836E+03
(PID.TID 0000.0001) %MON ke_mean                      =   2.8493404786848E+02
(PID.TID 0000.0001) %MON ke_vol                       =   2.7279762099332E+19
(PID.TID 0000.0001) %MON vort_r_min                   =  -1.8775443271330E-04
(PID.TID 0000.0001) %MON vort_r_max                   =   1.4862406575403E-04
(PID.TID 0000.0001) %MON vort_a_mean                  =  -2.9752655082570E-06
(PID.TID 0000.0001) %MON vort_a_sd                    =   6.0438603387475E-05
(PID.TID 0000.0001) %MON vort_p_mean                  =  -3.0340757736000E-06
(PID.TID 0000.0001) %MON vort_p_sd                    =   6.3334414512860E-05
(PID.TID 0000.0001) %MON surfExpan_theta_mean         =  -5.5976641247406E-04
(PID.TID 0000.0001) %MON surfExpan_salt_mean          =   5.8595496172223E-05
(PID.TID 0000.0001) %MON surfExpan_Heat_mean          =  -5.6455577888762E-02
(PID.TID 0000.0001) %MON En_Budget_T2PE_mean          =   1.3834240653404E+00
(PID.TID 0000.0001) // =======================================================
(PID.TID 0000.0001) // End MONITOR dynamic field statistics
(PID.TID 0000.0001) // =======================================================
 cg2d: Sum(rhs),rhsMax =   3.55066731572151E-09  3.44089767707774E+03
(PID.TID 0000.0001)                    cg2d_init_res =    8.94955727157301E+02
(PID.TID 0000.0001)                       cg2d_iters =    15
(PID.TID 0000.0001)                         cg2d_res =    1.21910677258200E-11
(PID.TID 0000.0001) // =======================================================
(PID.TID 0000.0001) // Begin MONITOR dynamic field statistics
(PID.TID 0000.0001) // =======================================================
(PID.TID 0000.0001) %MON time_tsnumber                =                 51846
(PID.TID 0000.0001) %MON time_secondsf                =   3.1107600000000E+07
(PID.TID 0000.0001) %MON dynstat_eta_max              =   5.6118445432736E+02
(PID.TID 0000.0001) %MON dynstat_eta_min              =  -1.2344636455982E+03
(PID.TID 0000.0001) %MON dynstat_eta_mean             =  -4.5644972836129E-13
(PID.TID 0000.0001) %MON dynstat_eta_sd               =   3.1818265744164E+02
(PID.TID 0000.0001) %MON dynstat_eta_del2             =   2.1023284868819E+01
(PID.TID 0000.0001) %MON dynstat_uvel_max             =   6.9600520009013E+01
(PID.TID 0000.0001) %MON dynstat_uvel_min             =  -5.4501317075122E+01
(PID.TID 0000.0001) %MON dynstat_uvel_mean            =   9.8877493207403E+00
(PID.TID 0000.0001) %MON dynstat_uvel_sd              =   2.0920898158559E+01
(PID.TID 0000.0001) %MON dynstat_uvel_del2            =   1.5814365698219E+00
(PID.TID 0000.0001) %MON dynstat_vvel_max             =   2.8308421557228E+01
(PID.TID 0000.0001) %MON dynstat_vvel_min             =  -3.6910093819816E+01
(PID.TID 0000.0001) %MON dynstat_vvel_mean            =   1.3476061615755E-02
(PID.TID 0000.0001) %MON dynstat_vvel_sd              =   5.9777964131969E+00
(PID.TID 0000.0001) %MON dynstat_vvel_del2            =   8.6250667776704E-01
(PID.TID 0000.0001) %MON dynstat_wvel_max             =   1.3716085785373E+00
(PID.TID 0000.0001) %MON dynstat_wvel_min             =  -3.0098458937456E+00
(PID.TID 0000.0001) %MON dynstat_wvel_mean            =  -5.3896007777368E-18
(PID.TID 0000.0001) %MON dynstat_wvel_sd              =   1.6674847066461E-01
(PID.TID 0000.0001) %MON dynstat_wvel_del2            =   4.0584932176400E-02
(PID.TID 0000.0001) %MON dynstat_theta_max            =   4.0485246868718E+02
(PID.TID 0000.0001) %MON dynstat_theta_min            =   2.7722405691785E+02
(PID.TID 0000.0001) %MON dynstat_theta_mean           =   3.1126328622349E+02
(PID.TID 0000.0001) %MON dynstat_theta_sd             =   3.5663136547067E+01
(PID.TID 0000.0001) %MON dynstat_theta_del2           =   3.6764884708919E-01
(PID.TID 0000.0001) %MON dynstat_salt_max             =   1.2353465464912E+01
(PID.TID 0000.0001) %MON dynstat_salt_min             =  -1.7849079151586E-01
(PID.TID 0000.0001) %MON dynstat_salt_mean            =   8.5427908503029E-01
(PID.TID 0000.0001) %MON dynstat_salt_sd              =   1.2846148050100E+00
(PID.TID 0000.0001) %MON dynstat_salt_del2            =   5.9772850771474E-02
(PID.TID 0000.0001) %MON advcfl_uvel_max              =   1.3355323239124E-01
(PID.TID 0000.0001) %MON advcfl_vvel_max              =   7.0825079135359E-02
(PID.TID 0000.0001) %MON advcfl_wvel_max              =   6.5669364954450E-02
(PID.TID 0000.0001) %MON advcfl_W_hf_max              =   1.7563547663557E-01
(PID.TID 0000.0001) %MON pe_b_mean                    =   5.0620101748311E-01
(PID.TID 0000.0001) %MON ke_max                       =   2.3812053961676E+03
(PID.TID 0000.0001) %MON ke_mean                      =   2.8492368575013E+02
(PID.TID 0000.0001) %MON ke_vol                       =   2.7279762099332E+19
(PID.TID 0000.0001) %MON vort_r_min                   =  -1.8878777032729E-04
(PID.TID 0000.0001) %MON vort_r_max                   =   1.5056883233600E-04
(PID.TID 0000.0001) %MON vort_a_mean                  =  -2.9752664235256E-06
(PID.TID 0000.0001) %MON vort_a_sd                    =   6.0438934003462E-05
(PID.TID 0000.0001) %MON vort_p_mean                  =  -3.0340767069601E-06
(PID.TID 0000.0001) %MON vort_p_sd                    =   6.3334770768005E-05
(PID.TID 0000.0001) %MON surfExpan_theta_mean         =  -5.5470215724714E-04
(PID.TID 0000.0001) %MON surfExpan_salt_mean          =   4.2881717875759E-05
(PID.TID 0000.0001) %MON surfExpan_Heat_mean          =  -5.5944819384765E-02
(PID.TID 0000.0001) %MON En_Budget_T2PE_mean          =   1.3639054165247E+00
(PID.TID 0000.0001) // =======================================================
(PID.TID 0000.0001) // End MONITOR dynamic field statistics
(PID.TID 0000.0001) // =======================================================
 cg2d: Sum(rhs),rhsMax =   2.67755240201950E-09  3.52034499908498E+03
(PID.TID 0000.0001)                    cg2d_init_res =    8.81387781427161E+02
(PID.TID 0000.0001)                       cg2d_iters =    15
(PID.TID 0000.0001)                         cg2d_res =    1.22236317466973E-11
(PID.TID 0000.0001) // =======================================================
(PID.TID 0000.0001) // Begin MONITOR dynamic field statistics
(PID.TID 0000.0001) // =======================================================
(PID.TID 0000.0001) %MON time_tsnumber                =                 51847
(PID.TID 0000.0001) %MON time_secondsf                =   3.1108200000000E+07
(PID.TID 0000.0001) %MON dynstat_eta_max              =   5.6311377841912E+02
(PID.TID 0000.0001) %MON dynstat_eta_min              =  -1.2528038711700E+03
(PID.TID 0000.0001) %MON dynstat_eta_mean             =  -4.5644972836129E-13
(PID.TID 0000.0001) %MON dynstat_eta_sd               =   3.1834589243785E+02
(PID.TID 0000.0001) %MON dynstat_eta_del2             =   2.1011942318614E+01
(PID.TID 0000.0001) %MON dynstat_uvel_max             =   6.9670551673987E+01
(PID.TID 0000.0001) %MON dynstat_uvel_min             =  -5.4652511956854E+01
(PID.TID 0000.0001) %MON dynstat_uvel_mean            =   9.8876902230565E+00
(PID.TID 0000.0001) %MON dynstat_uvel_sd              =   2.0921223743571E+01
(PID.TID 0000.0001) %MON dynstat_uvel_del2            =   1.5818534808713E+00
(PID.TID 0000.0001) %MON dynstat_vvel_max             =   2.8361110018082E+01
(PID.TID 0000.0001) %MON dynstat_vvel_min             =  -3.6916229461496E+01
(PID.TID 0000.0001) %MON dynstat_vvel_mean            =   1.3622970745899E-02
(PID.TID 0000.0001) %MON dynstat_vvel_sd              =   5.9747149965533E+00
(PID.TID 0000.0001) %MON dynstat_vvel_del2            =   8.6212383023324E-01
(PID.TID 0000.0001) %MON dynstat_wvel_max             =   1.3209569116881E+00
(PID.TID 0000.0001) %MON dynstat_wvel_min             =  -3.0230503644935E+00
(PID.TID 0000.0001) %MON dynstat_wvel_mean            =  -3.4873887385356E-18
(PID.TID 0000.0001) %MON dynstat_wvel_sd              =   1.6642907412204E-01
(PID.TID 0000.0001) %MON dynstat_wvel_del2            =   4.0545981559073E-02
(PID.TID 0000.0001) %MON dynstat_theta_max            =   4.0481149086583E+02
(PID.TID 0000.0001) %MON dynstat_theta_min            =   2.7722022590338E+02
(PID.TID 0000.0001) %MON dynstat_theta_mean           =   3.1126338105494E+02
(PID.TID 0000.0001) %MON dynstat_theta_sd             =   3.5663030388372E+01
(PID.TID 0000.0001) %MON dynstat_theta_del2           =   3.6754709211408E-01
(PID.TID 0000.0001) %MON dynstat_salt_max             =   1.2340465607867E+01
(PID.TID 0000.0001) %MON dynstat_salt_min             =  -1.7641552910165E-01
(PID.TID 0000.0001) %MON dynstat_salt_mean            =   8.5425021969585E-01
(PID.TID 0000.0001) %MON dynstat_salt_sd              =   1.2846465295011E+00
(PID.TID 0000.0001) %MON dynstat_salt_del2            =   5.9718953843618E-02
(PID.TID 0000.0001) %MON advcfl_uvel_max              =   1.3368761292785E-01
(PID.TID 0000.0001) %MON advcfl_vvel_max              =   7.0836852535602E-02
(PID.TID 0000.0001) %MON advcfl_wvel_max              =   6.5957462498041E-02
(PID.TID 0000.0001) %MON advcfl_W_hf_max              =   1.7465054196345E-01
(PID.TID 0000.0001) %MON pe_b_mean                    =   5.0672053616024E-01
(PID.TID 0000.0001) %MON ke_max                       =   2.3795580425031E+03
(PID.TID 0000.0001) %MON ke_mean                      =   2.8491221764991E+02
(PID.TID 0000.0001) %MON ke_vol                       =   2.7279762099332E+19
(PID.TID 0000.0001) %MON vort_r_min                   =  -1.8930668198377E-04
(PID.TID 0000.0001) %MON vort_r_max                   =   1.5231400440856E-04
(PID.TID 0000.0001) %MON vort_a_mean                  =  -2.9752673388495E-06
(PID.TID 0000.0001) %MON vort_a_sd                    =   6.0439091523453E-05
(PID.TID 0000.0001) %MON vort_p_mean                  =  -3.0340776403767E-06
(PID.TID 0000.0001) %MON vort_p_sd                    =   6.3334985227786E-05
(PID.TID 0000.0001) %MON surfExpan_theta_mean         =  -5.5143557274853E-04
(PID.TID 0000.0001) %MON surfExpan_salt_mean          =   2.6289775213794E-05
(PID.TID 0000.0001) %MON surfExpan_Heat_mean          =  -5.5615366042318E-02
(PID.TID 0000.0001) %MON En_Budget_T2PE_mean          =   1.3446222662534E+00
(PID.TID 0000.0001) // =======================================================
(PID.TID 0000.0001) // End MONITOR dynamic field statistics
(PID.TID 0000.0001) // =======================================================
 cg2d: Sum(rhs),rhsMax =   4.07453626394272E-09  3.57808322858532E+03
(PID.TID 0000.0001)                    cg2d_init_res =    8.62393674579030E+02
(PID.TID 0000.0001)                       cg2d_iters =    15
(PID.TID 0000.0001)                         cg2d_res =    1.21806152571234E-11
(PID.TID 0000.0001) // =======================================================
(PID.TID 0000.0001) // Begin MONITOR dynamic field statistics
(PID.TID 0000.0001) // =======================================================
(PID.TID 0000.0001) %MON time_tsnumber                =                 51848
(PID.TID 0000.0001) %MON time_secondsf                =   3.1108800000000E+07
(PID.TID 0000.0001) %MON dynstat_eta_max              =   5.6495006128107E+02
(PID.TID 0000.0001) %MON dynstat_eta_min              =  -1.2662985335367E+03
(PID.TID 0000.0001) %MON dynstat_eta_mean             =  -3.6035504870628E-13
(PID.TID 0000.0001) %MON dynstat_eta_sd               =   3.1851073109397E+02
(PID.TID 0000.0001) %MON dynstat_eta_del2             =   2.0999644635174E+01
(PID.TID 0000.0001) %MON dynstat_uvel_max             =   6.9703965212898E+01
(PID.TID 0000.0001) %MON dynstat_uvel_min             =  -5.4780656185557E+01
(PID.TID 0000.0001) %MON dynstat_uvel_mean            =   9.8876294715455E+00
(PID.TID 0000.0001) %MON dynstat_uvel_sd              =   2.0921522717347E+01
(PID.TID 0000.0001) %MON dynstat_uvel_del2            =   1.5824389025874E+00
(PID.TID 0000.0001) %MON dynstat_vvel_max             =   2.8358017021521E+01
(PID.TID 0000.0001) %MON dynstat_vvel_min             =  -3.6907256909365E+01
(PID.TID 0000.0001) %MON dynstat_vvel_mean            =   1.3766731563438E-02
(PID.TID 0000.0001) %MON dynstat_vvel_sd              =   5.9715473323641E+00
(PID.TID 0000.0001) %MON dynstat_vvel_del2            =   8.6166864031217E-01
(PID.TID 0000.0001) %MON dynstat_wvel_max             =   1.2668100860633E+00
(PID.TID 0000.0001) %MON dynstat_wvel_min             =  -3.0340628963904E+00
(PID.TID 0000.0001) %MON dynstat_wvel_mean            =   9.5110601960061E-19
(PID.TID 0000.0001) %MON dynstat_wvel_sd              =   1.6610462641787E-01
(PID.TID 0000.0001) %MON dynstat_wvel_del2            =   4.0496223058918E-02
(PID.TID 0000.0001) %MON dynstat_theta_max            =   4.0476573726487E+02
(PID.TID 0000.0001) %MON dynstat_theta_min            =   2.7721658392253E+02
(PID.TID 0000.0001) %MON dynstat_theta_mean           =   3.1126348145460E+02
(PID.TID 0000.0001) %MON dynstat_theta_sd             =   3.5662916315668E+01
(PID.TID 0000.0001) %MON dynstat_theta_del2           =   3.6749545588902E-01
(PID.TID 0000.0001) %MON dynstat_salt_max             =   1.2324916024839E+01
(PID.TID 0000.0001) %MON dynstat_salt_min             =  -1.7383364659696E-01
(PID.TID 0000.0001) %MON dynstat_salt_mean            =   8.5421872219036E-01
(PID.TID 0000.0001) %MON dynstat_salt_sd              =   1.2846717906382E+00
(PID.TID 0000.0001) %MON dynstat_salt_del2            =   5.9665026551288E-02
(PID.TID 0000.0001) %MON advcfl_uvel_max              =   1.3375172862881E-01
(PID.TID 0000.0001) %MON advcfl_vvel_max              =   7.0819635518549E-02
(PID.TID 0000.0001) %MON advcfl_wvel_max              =   6.6197735921246E-02
(PID.TID 0000.0001) %MON advcfl_W_hf_max              =   1.7357757773026E-01
(PID.TID 0000.0001) %MON pe_b_mean                    =   5.0724542911006E-01
(PID.TID 0000.0001) %MON ke_max                       =   2.3919413374552E+03
(PID.TID 0000.0001) %MON ke_mean                      =   2.8489969063608E+02
(PID.TID 0000.0001) %MON ke_vol                       =   2.7279762099332E+19
(PID.TID 0000.0001) %MON vort_r_min                   =  -1.8932447742511E-04
(PID.TID 0000.0001) %MON vort_r_max                   =   1.5386112218289E-04
(PID.TID 0000.0001) %MON vort_a_mean                  =  -2.9752682557885E-06
(PID.TID 0000.0001) %MON vort_a_sd                    =   6.0439080295197E-05
(PID.TID 0000.0001) %MON vort_p_mean                  =  -3.0340785754403E-06
(PID.TID 0000.0001) %MON vort_p_sd                    =   6.3335063128300E-05
(PID.TID 0000.0001) %MON surfExpan_theta_mean         =  -5.5227740822082E-04
(PID.TID 0000.0001) %MON surfExpan_salt_mean          =   1.3162092028643E-05
(PID.TID 0000.0001) %MON surfExpan_Heat_mean          =  -5.5700269864710E-02
(PID.TID 0000.0001) %MON En_Budget_T2PE_mean          =   1.3259579729606E+00
(PID.TID 0000.0001) // =======================================================
(PID.TID 0000.0001) // End MONITOR dynamic field statistics
(PID.TID 0000.0001) // =======================================================
 cg2d: Sum(rhs),rhsMax =   1.80443748831749E-09  3.61433874131523E+03
(PID.TID 0000.0001)                    cg2d_init_res =    8.48172463484483E+02
(PID.TID 0000.0001)                       cg2d_iters =    15
(PID.TID 0000.0001)                         cg2d_res =    1.21332737588680E-11
(PID.TID 0000.0001) // =======================================================
(PID.TID 0000.0001) // Begin MONITOR dynamic field statistics
(PID.TID 0000.0001) // =======================================================
(PID.TID 0000.0001) %MON time_tsnumber                =                 51849
(PID.TID 0000.0001) %MON time_secondsf                =   3.1109400000000E+07
(PID.TID 0000.0001) %MON dynstat_eta_max              =   5.6664383601408E+02
(PID.TID 0000.0001) %MON dynstat_eta_min              =  -1.2749654264815E+03
(PID.TID 0000.0001) %MON dynstat_eta_mean             =  -5.1650890314566E-13
(PID.TID 0000.0001) %MON dynstat_eta_sd               =   3.1867507624033E+02
(PID.TID 0000.0001) %MON dynstat_eta_del2             =   2.0989421686910E+01
(PID.TID 0000.0001) %MON dynstat_uvel_max             =   6.9702460305677E+01
(PID.TID 0000.0001) %MON dynstat_uvel_min             =  -5.4886812736043E+01
(PID.TID 0000.0001) %MON dynstat_uvel_mean            =   9.8875672694242E+00
(PID.TID 0000.0001) %MON dynstat_uvel_sd              =   2.0921794949003E+01
(PID.TID 0000.0001) %MON dynstat_uvel_del2            =   1.5828941916368E+00
(PID.TID 0000.0001) %MON dynstat_vvel_max             =   2.8299498521145E+01
(PID.TID 0000.0001) %MON dynstat_vvel_min             =  -3.6883319339929E+01
(PID.TID 0000.0001) %MON dynstat_vvel_mean            =   1.3905996980512E-02
(PID.TID 0000.0001) %MON dynstat_vvel_sd              =   5.9683047492286E+00
(PID.TID 0000.0001) %MON dynstat_vvel_del2            =   8.6137163307650E-01
(PID.TID 0000.0001) %MON dynstat_wvel_max             =   1.2402695393719E+00
(PID.TID 0000.0001) %MON dynstat_wvel_min             =  -3.0429928875923E+00
(PID.TID 0000.0001) %MON dynstat_wvel_mean            =  -3.9629417483359E-18
(PID.TID 0000.0001) %MON dynstat_wvel_sd              =   1.6576256450482E-01
(PID.TID 0000.0001) %MON dynstat_wvel_del2            =   4.0428054078548E-02
(PID.TID 0000.0001) %MON dynstat_theta_max            =   4.0471522388899E+02
(PID.TID 0000.0001) %MON dynstat_theta_min            =   2.7721313272937E+02
(PID.TID 0000.0001) %MON dynstat_theta_mean           =   3.1126356614512E+02
(PID.TID 0000.0001) %MON dynstat_theta_sd             =   3.5662813875912E+01
(PID.TID 0000.0001) %MON dynstat_theta_del2           =   3.6741877823183E-01
(PID.TID 0000.0001) %MON dynstat_salt_max             =   1.2306898889473E+01
(PID.TID 0000.0001) %MON dynstat_salt_min             =  -1.7409000983837E-01
(PID.TID 0000.0001) %MON dynstat_salt_mean            =   8.5419372650532E-01
(PID.TID 0000.0001) %MON dynstat_salt_sd              =   1.2847047408472E+00
(PID.TID 0000.0001) %MON dynstat_salt_del2            =   5.9604847495549E-02
(PID.TID 0000.0001) %MON advcfl_uvel_max              =   1.3374884093165E-01
(PID.TID 0000.0001) %MON advcfl_vvel_max              =   7.0773702819002E-02
(PID.TID 0000.0001) %MON advcfl_wvel_max              =   6.6392572092923E-02
(PID.TID 0000.0001) %MON advcfl_W_hf_max              =   1.7243324922171E-01
(PID.TID 0000.0001) %MON pe_b_mean                    =   5.0776902108388E-01
(PID.TID 0000.0001) %MON ke_max                       =   2.4051217901428E+03
(PID.TID 0000.0001) %MON ke_mean                      =   2.8488616970269E+02
(PID.TID 0000.0001) %MON ke_vol                       =   2.7279762099332E+19
(PID.TID 0000.0001) %MON vort_r_min                   =  -1.8885997202582E-04
(PID.TID 0000.0001) %MON vort_r_max                   =   1.5521286404452E-04
(PID.TID 0000.0001) %MON vort_a_mean                  =  -2.9752691757274E-06
(PID.TID 0000.0001) %MON vort_a_sd                    =   6.0438901840901E-05
(PID.TID 0000.0001) %MON vort_p_mean                  =  -3.0340795135631E-06
(PID.TID 0000.0001) %MON vort_p_sd                    =   6.3335006846183E-05
(PID.TID 0000.0001) %MON surfExpan_theta_mean         =  -5.5686433901051E-04
(PID.TID 0000.0001) %MON surfExpan_salt_mean          =   2.4052118121573E-06
(PID.TID 0000.0001) %MON surfExpan_Heat_mean          =  -5.6162887525768E-02
(PID.TID 0000.0001) %MON En_Budget_T2PE_mean          =   1.3082696857430E+00
(PID.TID 0000.0001) // =======================================================
(PID.TID 0000.0001) // End MONITOR dynamic field statistics
(PID.TID 0000.0001) // =======================================================
 cg2d: Sum(rhs),rhsMax =   4.01632860302925E-09  3.62984316763683E+03
(PID.TID 0000.0001)                    cg2d_init_res =    8.39319783074950E+02
(PID.TID 0000.0001)                       cg2d_iters =    15
(PID.TID 0000.0001)                         cg2d_res =    1.20884927927714E-11
(PID.TID 0000.0001) // =======================================================
(PID.TID 0000.0001) // Begin MONITOR dynamic field statistics
(PID.TID 0000.0001) // =======================================================
(PID.TID 0000.0001) %MON time_tsnumber                =                 51850
(PID.TID 0000.0001) %MON time_secondsf                =   3.1110000000000E+07
(PID.TID 0000.0001) %MON dynstat_eta_max              =   5.6814757891262E+02
(PID.TID 0000.0001) %MON dynstat_eta_min              =  -1.2789923650388E+03
(PID.TID 0000.0001) %MON dynstat_eta_mean             =  -4.0840238853378E-13
(PID.TID 0000.0001) %MON dynstat_eta_sd               =   3.1883784346270E+02
(PID.TID 0000.0001) %MON dynstat_eta_del2             =   2.0985392820465E+01
(PID.TID 0000.0001) %MON dynstat_uvel_max             =   6.9668046730406E+01
(PID.TID 0000.0001) %MON dynstat_uvel_min             =  -5.4972445462505E+01
(PID.TID 0000.0001) %MON dynstat_uvel_mean            =   9.8875038105126E+00
(PID.TID 0000.0001) %MON dynstat_uvel_sd              =   2.0922041131310E+01
(PID.TID 0000.0001) %MON dynstat_uvel_del2            =   1.5832552075643E+00
(PID.TID 0000.0001) %MON dynstat_vvel_max             =   2.8186688523873E+01
(PID.TID 0000.0001) %MON dynstat_vvel_min             =  -3.6844644880489E+01
(PID.TID 0000.0001) %MON dynstat_vvel_mean            =   1.4039706330660E-02
(PID.TID 0000.0001) %MON dynstat_vvel_sd              =   5.9649972412068E+00
(PID.TID 0000.0001) %MON dynstat_vvel_del2            =   8.6123599724112E-01
(PID.TID 0000.0001) %MON dynstat_wvel_max             =   1.2492514697710E+00
(PID.TID 0000.0001) %MON dynstat_wvel_min             =  -3.0499458113835E+00
(PID.TID 0000.0001) %MON dynstat_wvel_mean            =   2.3777650490015E-18
(PID.TID 0000.0001) %MON dynstat_wvel_sd              =   1.6540291257792E-01
(PID.TID 0000.0001) %MON dynstat_wvel_del2            =   4.0352803957457E-02
(PID.TID 0000.0001) %MON dynstat_theta_max            =   4.0466000095312E+02
(PID.TID 0000.0001) %MON dynstat_theta_min            =   2.7720987239716E+02
(PID.TID 0000.0001) %MON dynstat_theta_mean           =   3.1126364552209E+02
(PID.TID 0000.0001) %MON dynstat_theta_sd             =   3.5662713944527E+01
(PID.TID 0000.0001) %MON dynstat_theta_del2           =   3.6742693784804E-01
(PID.TID 0000.0001) %MON dynstat_salt_max             =   1.2286463526721E+01
(PID.TID 0000.0001) %MON dynstat_salt_min             =  -1.7564964526169E-01
(PID.TID 0000.0001) %MON dynstat_salt_mean            =   8.5417054524973E-01
(PID.TID 0000.0001) %MON dynstat_salt_sd              =   1.2847371703276E+00
(PID.TID 0000.0001) %MON dynstat_salt_del2            =   5.9543945467628E-02
(PID.TID 0000.0001) %MON advcfl_uvel_max              =   1.3368280630698E-01
(PID.TID 0000.0001) %MON advcfl_vvel_max              =   7.0699492179937E-02
(PID.TID 0000.0001) %MON advcfl_wvel_max              =   6.6544272248367E-02
(PID.TID 0000.0001) %MON advcfl_W_hf_max              =   1.7123083094717E-01
(PID.TID 0000.0001) %MON pe_b_mean                    =   5.0828785211971E-01
(PID.TID 0000.0001) %MON ke_max                       =   2.4159782456904E+03
(PID.TID 0000.0001) %MON ke_mean                      =   2.8487172921659E+02
(PID.TID 0000.0001) %MON ke_vol                       =   2.7279762099332E+19
(PID.TID 0000.0001) %MON vort_r_min                   =  -1.8793720823071E-04
(PID.TID 0000.0001) %MON vort_r_max                   =   1.5637308353475E-04
(PID.TID 0000.0001) %MON vort_a_mean                  =  -2.9752700999720E-06
(PID.TID 0000.0001) %MON vort_a_sd                    =   6.0438554849860E-05
(PID.TID 0000.0001) %MON vort_p_mean                  =  -3.0340804560766E-06
(PID.TID 0000.0001) %MON vort_p_sd                    =   6.3334815820767E-05
(PID.TID 0000.0001) %MON surfExpan_theta_mean         =  -5.6452527294124E-04
(PID.TID 0000.0001) %MON surfExpan_salt_mean          =  -3.8450301824013E-06
(PID.TID 0000.0001) %MON surfExpan_Heat_mean          =  -5.6935535620723E-02
(PID.TID 0000.0001) %MON En_Budget_T2PE_mean          =   1.2917999042397E+00
(PID.TID 0000.0001) // =======================================================
(PID.TID 0000.0001) // End MONITOR dynamic field statistics
(PID.TID 0000.0001) // =======================================================
(PID.TID 0000.0001) %CHECKPOINT     51850 ckptA
(PID.TID 0000.0001)   Seconds in section "ALL                    [THE_MODEL_MAIN]":
(PID.TID 0000.0001)           User time:  2.91000008
(PID.TID 0000.0001)         System time:  0.109999998
(PID.TID 0000.0001)     Wall clock time:  3.25143695
(PID.TID 0000.0001)          No. starts: 1
(PID.TID 0000.0001)           No. stops: 1
(PID.TID 0000.0001)   Seconds in section "INITIALISE_FIXED       [THE_MODEL_MAIN]":
(PID.TID 0000.0001)           User time:  0.0800000038
(PID.TID 0000.0001)         System time:  0.0199999996
(PID.TID 0000.0001)     Wall clock time:  0.13885808
(PID.TID 0000.0001)          No. starts: 1
(PID.TID 0000.0001)           No. stops: 1
(PID.TID 0000.0001)   Seconds in section "THE_MAIN_LOOP          [THE_MODEL_MAIN]":
(PID.TID 0000.0001)           User time:  2.83000007
(PID.TID 0000.0001)         System time:  0.0600000042
(PID.TID 0000.0001)     Wall clock time:  3.05145597
(PID.TID 0000.0001)          No. starts: 1
(PID.TID 0000.0001)           No. stops: 1
(PID.TID 0000.0001)   Seconds in section "INITIALISE_VARIA    [THE_MAIN_LOOP]":
(PID.TID 0000.0001)           User time:  0.0799999982
(PID.TID 0000.0001)         System time:  0.00999999978
(PID.TID 0000.0001)     Wall clock time:  0.118145943
(PID.TID 0000.0001)          No. starts: 1
(PID.TID 0000.0001)           No. stops: 1
(PID.TID 0000.0001)   Seconds in section "MONITOR             [THE_MAIN_LOOP]":
(PID.TID 0000.0001)           User time:  0.0399999917
(PID.TID 0000.0001)         System time:  0.
(PID.TID 0000.0001)     Wall clock time:  0.0413889885
(PID.TID 0000.0001)          No. starts: 1
(PID.TID 0000.0001)           No. stops: 1
(PID.TID 0000.0001)   Seconds in section "DO_THE_MODEL_IO     [THE_MAIN_LOOP]":
(PID.TID 0000.0001)           User time:  0.
(PID.TID 0000.0001)         System time:  0.0100000016
(PID.TID 0000.0001)     Wall clock time:  0.0493731499
(PID.TID 0000.0001)          No. starts: 1
(PID.TID 0000.0001)           No. stops: 1
(PID.TID 0000.0001)   Seconds in section "MAIN LOOP           [THE_MAIN_LOOP]":
(PID.TID 0000.0001)           User time:  2.71000008
(PID.TID 0000.0001)         System time:  0.0400000028
(PID.TID 0000.0001)     Wall clock time:  2.84239483
(PID.TID 0000.0001)          No. starts: 1
(PID.TID 0000.0001)           No. stops: 1
(PID.TID 0000.0001)   Seconds in section "FORWARD_STEP        [THE_MAIN_LOOP]":
(PID.TID 0000.0001)           User time:  2.71000008
(PID.TID 0000.0001)         System time:  0.0400000028
(PID.TID 0000.0001)     Wall clock time:  2.8420732
(PID.TID 0000.0001)          No. starts: 10
(PID.TID 0000.0001)           No. stops: 10
(PID.TID 0000.0001)   Seconds in section "EXTERNAL_FIELDS_LOAD[FORWARD_STEP]":
(PID.TID 0000.0001)           User time:  0.
(PID.TID 0000.0001)         System time:  0.
(PID.TID 0000.0001)     Wall clock time:  0.000306129456
(PID.TID 0000.0001)          No. starts: 10
(PID.TID 0000.0001)           No. stops: 10
(PID.TID 0000.0001)   Seconds in section "DO_ATMOSPHERIC_PHYS [FORWARD_STEP]":
(PID.TID 0000.0001)           User time:  0.580000505
(PID.TID 0000.0001)         System time:  0.00999999791
(PID.TID 0000.0001)     Wall clock time:  0.602374792
(PID.TID 0000.0001)          No. starts: 10
(PID.TID 0000.0001)           No. stops: 10
(PID.TID 0000.0001)   Seconds in section "AIM_DO_PHYSICS [DO_ATMOSPHERIC_PHYS]":
(PID.TID 0000.0001)           User time:  0.570000395
(PID.TID 0000.0001)         System time:  0.00999999791
(PID.TID 0000.0001)     Wall clock time:  0.600904942
(PID.TID 0000.0001)          No. starts: 20
(PID.TID 0000.0001)           No. stops: 20
(PID.TID 0000.0001)   Seconds in section "DO_OCEANIC_PHYS     [FORWARD_STEP]":
(PID.TID 0000.0001)           User time:  0.00999999046
(PID.TID 0000.0001)         System time:  0.
(PID.TID 0000.0001)     Wall clock time:  0.00884962082
(PID.TID 0000.0001)          No. starts: 10
(PID.TID 0000.0001)           No. stops: 10
(PID.TID 0000.0001)   Seconds in section "DYNAMICS            [FORWARD_STEP]":
(PID.TID 0000.0001)           User time:  0.389999717
(PID.TID 0000.0001)         System time:  0.0100000016
(PID.TID 0000.0001)     Wall clock time:  0.410660267
(PID.TID 0000.0001)          No. starts: 10
(PID.TID 0000.0001)           No. stops: 10
(PID.TID 0000.0001)   Seconds in section "SOLVE_FOR_PRESSURE  [FORWARD_STEP]":
(PID.TID 0000.0001)           User time:  0.280000061
(PID.TID 0000.0001)         System time:  0.
(PID.TID 0000.0001)     Wall clock time:  0.259449005
(PID.TID 0000.0001)          No. starts: 10
(PID.TID 0000.0001)           No. stops: 10
(PID.TID 0000.0001)   Seconds in section "UV_CORRECTION_STEP  [FORWARD_STEP]":
(PID.TID 0000.0001)           User time:  0.259999901
(PID.TID 0000.0001)         System time:  0.
(PID.TID 0000.0001)     Wall clock time:  0.288144112
(PID.TID 0000.0001)          No. starts: 10
(PID.TID 0000.0001)           No. stops: 10
(PID.TID 0000.0001)   Seconds in section "UPDATE_ETAH        [FORWARD_STEP]":
(PID.TID 0000.0001)           User time:  0.
(PID.TID 0000.0001)         System time:  0.
(PID.TID 0000.0001)     Wall clock time:  0.00184702873
(PID.TID 0000.0001)          No. starts: 10
(PID.TID 0000.0001)           No. stops: 10
(PID.TID 0000.0001)   Seconds in section "BLOCKING_EXCHANGES  [FORWARD_STEP]":
(PID.TID 0000.0001)           User time:  0.0200000107
(PID.TID 0000.0001)         System time:  0.
(PID.TID 0000.0001)     Wall clock time:  0.011828661
(PID.TID 0000.0001)          No. starts: 20
(PID.TID 0000.0001)           No. stops: 20
(PID.TID 0000.0001)   Seconds in section "THERMODYNAMICS      [FORWARD_STEP]":
(PID.TID 0000.0001)           User time:  0.279999912
(PID.TID 0000.0001)         System time:  0.
(PID.TID 0000.0001)     Wall clock time:  0.299870729
(PID.TID 0000.0001)          No. starts: 10
(PID.TID 0000.0001)           No. stops: 10
(PID.TID 0000.0001)   Seconds in section "TS_CORRECTION_STEP  [FORWARD_STEP]":
(PID.TID 0000.0001)           User time:  0.289999813
(PID.TID 0000.0001)         System time:  0.
(PID.TID 0000.0001)     Wall clock time:  0.302748442
(PID.TID 0000.0001)          No. starts: 10
(PID.TID 0000.0001)           No. stops: 10
(PID.TID 0000.0001)   Seconds in section "DO_STATEVARS_DIAGS  [FORWARD_STEP]":
(PID.TID 0000.0001)           User time:  0.179999888
(PID.TID 0000.0001)         System time:  0.
(PID.TID 0000.0001)     Wall clock time:  0.173683643
(PID.TID 0000.0001)          No. starts: 10
(PID.TID 0000.0001)           No. stops: 10
(PID.TID 0000.0001)   Seconds in section "MONITOR             [FORWARD_STEP]":
(PID.TID 0000.0001)           User time:  0.410000294
(PID.TID 0000.0001)         System time:  0.00999999791
(PID.TID 0000.0001)     Wall clock time:  0.430006027
(PID.TID 0000.0001)          No. starts: 10
(PID.TID 0000.0001)           No. stops: 10
(PID.TID 0000.0001)   Seconds in section "DO_THE_MODEL_IO     [FORWARD_STEP]":
(PID.TID 0000.0001)           User time:  0.00999999046
(PID.TID 0000.0001)         System time:  0.0100000054
(PID.TID 0000.0001)     Wall clock time:  0.047232151
(PID.TID 0000.0001)          No. starts: 10
(PID.TID 0000.0001)           No. stops: 10
(PID.TID 0000.0001)   Seconds in section "WRITE_CHECKPOINT    [FORWARD_STEP]":
(PID.TID 0000.0001)           User time:  0.
(PID.TID 0000.0001)         System time:  0.
(PID.TID 0000.0001)     Wall clock time:  0.000296592712
(PID.TID 0000.0001)          No. starts: 10
(PID.TID 0000.0001)           No. stops: 10
(PID.TID 0000.0001)   Seconds in section "WRITE_CHECKPOINT       [THE_MODEL_MAIN]":
(PID.TID 0000.0001)           User time:  0.
(PID.TID 0000.0001)         System time:  0.0299999937
(PID.TID 0000.0001)     Wall clock time:  0.0609998703
(PID.TID 0000.0001)          No. starts: 1
(PID.TID 0000.0001)           No. stops: 1
(PID.TID 0000.0001) // ======================================================
(PID.TID 0000.0001) // Tile <-> Tile communication statistics
(PID.TID 0000.0001) // ======================================================
(PID.TID 0000.0001) // o Tile number: 000001
(PID.TID 0000.0001) //         No. X exchanges =              0
(PID.TID 0000.0001) //            Max. X spins =              0
(PID.TID 0000.0001) //            Min. X spins =     1000000000
(PID.TID 0000.0001) //          Total. X spins =              0
(PID.TID 0000.0001) //            Avg. X spins =       0.00E+00
(PID.TID 0000.0001) //         No. Y exchanges =              0
(PID.TID 0000.0001) //            Max. Y spins =              0
(PID.TID 0000.0001) //            Min. Y spins =     1000000000
(PID.TID 0000.0001) //          Total. Y spins =              0
(PID.TID 0000.0001) //            Avg. Y spins =       0.00E+00
(PID.TID 0000.0001) // o Tile number: 000002
(PID.TID 0000.0001) //         No. X exchanges =              0
(PID.TID 0000.0001) //            Max. X spins =              0
(PID.TID 0000.0001) //            Min. X spins =     1000000000
(PID.TID 0000.0001) //          Total. X spins =              0
(PID.TID 0000.0001) //            Avg. X spins =       0.00E+00
(PID.TID 0000.0001) //         No. Y exchanges =              0
(PID.TID 0000.0001) //            Max. Y spins =              0
(PID.TID 0000.0001) //            Min. Y spins =     1000000000
(PID.TID 0000.0001) //          Total. Y spins =              0
(PID.TID 0000.0001) //            Avg. Y spins =       0.00E+00
(PID.TID 0000.0001) // o Thread number: 000001
(PID.TID 0000.0001) //            No. barriers =           5648
(PID.TID 0000.0001) //      Max. barrier spins =              1
(PID.TID 0000.0001) //      Min. barrier spins =              1
(PID.TID 0000.0001) //     Total barrier spins =           5648
(PID.TID 0000.0001) //      Avg. barrier spins =       1.00E+00
