(PID.TID 0000.0001) 
(PID.TID 0000.0001) // ======================================================
(PID.TID 0000.0001) //                      MITgcm UV
(PID.TID 0000.0001) //                      =========
(PID.TID 0000.0001) // ======================================================
(PID.TID 0000.0001) // execution environment starting up...
(PID.TID 0000.0001) 
(PID.TID 0000.0001) // MITgcmUV version:  checkpoint58
(PID.TID 0000.0001) // Build user:        jmc
(PID.TID 0000.0001) // Build host:        faulks
(PID.TID 0000.0001) // Build date:        Wed Jan 25 20:22:18 EST 2006
(PID.TID 0000.0001) 
(PID.TID 0000.0001) // =======================================================
(PID.TID 0000.0001) // Execution Environment parameter file "eedata"
(PID.TID 0000.0001) // =======================================================
(PID.TID 0000.0001) ># Example "eedata" file
(PID.TID 0000.0001) ># Lines beginning "#" are comments
(PID.TID 0000.0001) ># nTx - No. threads per process in X
(PID.TID 0000.0001) ># nTy - No. threads per process in Y
(PID.TID 0000.0001) > &EEPARMS
(PID.TID 0000.0001) > &
(PID.TID 0000.0001) ># Note: Some systems use & as the
(PID.TID 0000.0001) ># namelist terminator. Other systems
(PID.TID 0000.0001) ># use a / character (as shown here).
(PID.TID 0000.0001) 
(PID.TID 0000.0001) // =======================================================
(PID.TID 0000.0001) // Computational Grid Specification ( see files "SIZE.h" )
(PID.TID 0000.0001) //                                  ( and "eedata"       )
(PID.TID 0000.0001) // =======================================================
(PID.TID 0000.0001)      nPx =    1 ; /* No. processes in X */
(PID.TID 0000.0001)      nPy =    1 ; /* No. processes in Y */
(PID.TID 0000.0001)      nSx =    1 ; /* No. tiles in X per process */
(PID.TID 0000.0001)      nSy =    2 ; /* No. tiles in Y per process */
(PID.TID 0000.0001)      sNx =  128 ; /* Tile size in X */
(PID.TID 0000.0001)      sNy =   32 ; /* Tile size in Y */
(PID.TID 0000.0001)      OLx =    3 ; /* Tile overlap distance in X */
(PID.TID 0000.0001)      OLy =    3 ; /* Tile overlap distance in Y */
(PID.TID 0000.0001)      nTx =    1 ; /* No. threads in X per process */
(PID.TID 0000.0001)      nTy =    1 ; /* No. threads in Y per process */
(PID.TID 0000.0001)       Nr =    5 ; /* No. levels in the vertical   */
(PID.TID 0000.0001)       nX =  128 ; /* Total domain size in X ( = nPx*nSx*sNx ) */
(PID.TID 0000.0001)       nY =   64 ; /* Total domain size in Y ( = nPy*nSy*sNy ) */
(PID.TID 0000.0001)   nTiles =    2 ; /* Total no. tiles per process ( = nSx*nSy ) */
(PID.TID 0000.0001)   nProcs =    1 ; /* Total no. processes ( = nPx*nPy ) */
(PID.TID 0000.0001) nThreads =    1 ; /* Total no. threads per process ( = nTx*nTy ) */
(PID.TID 0000.0001) usingMPI =    F ; /* Flag used to control whether MPI is in use */
(PID.TID 0000.0001)                   /*  note: To execute a program with MPI calls */
(PID.TID 0000.0001)                   /*  it must be launched appropriately e.g     */
(PID.TID 0000.0001)                   /*  "mpirun -np 64 ......"                    */
(PID.TID 0000.0001) useCoupler=   F ; /* Flag used to control communications with */
(PID.TID 0000.0001)                   /*  other model components, through a coupler */
(PID.TID 0000.0001) 
(PID.TID 0000.0001) // ======================================================
(PID.TID 0000.0001) // Mapping of tiles to threads
(PID.TID 0000.0001) // ======================================================
(PID.TID 0000.0001) // -o- Thread   1, tiles (   1:   1,   1:   2)
(PID.TID 0000.0001) 
(PID.TID 0000.0001) // ======================================================
(PID.TID 0000.0001) // Tile <-> Tile connectvity table
(PID.TID 0000.0001) // ======================================================
(PID.TID 0000.0001) // Tile number: 000001 (process no. = 000001)
(PID.TID 0000.0001) //        WEST: Tile = 000001, Process = 000001, Comm = put
(PID.TID 0000.0001) //                bi = 000001, bj = 000001
(PID.TID 0000.0001) //        EAST: Tile = 000001, Process = 000001, Comm = put
(PID.TID 0000.0001) //                bi = 000001, bj = 000001
(PID.TID 0000.0001) //       SOUTH: Tile = 000002, Process = 000001, Comm = put
(PID.TID 0000.0001) //                bi = 000001, bj = 000002
(PID.TID 0000.0001) //       NORTH: Tile = 000002, Process = 000001, Comm = put
(PID.TID 0000.0001) //                bi = 000001, bj = 000002
(PID.TID 0000.0001) // Tile number: 000002 (process no. = 000001)
(PID.TID 0000.0001) //        WEST: Tile = 000002, Process = 000001, Comm = put
(PID.TID 0000.0001) //                bi = 000001, bj = 000002
(PID.TID 0000.0001) //        EAST: Tile = 000002, Process = 000001, Comm = put
(PID.TID 0000.0001) //                bi = 000001, bj = 000002
(PID.TID 0000.0001) //       SOUTH: Tile = 000001, Process = 000001, Comm = put
(PID.TID 0000.0001) //                bi = 000001, bj = 000001
(PID.TID 0000.0001) //       NORTH: Tile = 000001, Process = 000001, Comm = put
(PID.TID 0000.0001) //                bi = 000001, bj = 000001
(PID.TID 0000.0001) 
(PID.TID 0000.0001) // =======================================================
(PID.TID 0000.0001) // Model parameter file "data"
(PID.TID 0000.0001) // =======================================================
(PID.TID 0000.0001) ># ====================
(PID.TID 0000.0001) ># | Model parameters |
(PID.TID 0000.0001) ># ====================
(PID.TID 0000.0001) >#
(PID.TID 0000.0001) ># Continuous equation parameters
(PID.TID 0000.0001) > &PARM01
(PID.TID 0000.0001) > tRef=281.089, 289.321, 307.191, 331.377, 432.413,
(PID.TID 0000.0001) > sRef=5*0.,
(PID.TID 0000.0001) > no_slip_sides=.FALSE.,
(PID.TID 0000.0001) > no_slip_bottom=.FALSE.,
(PID.TID 0000.0001) > buoyancyRelation='ATMOSPHERIC',
(PID.TID 0000.0001) > eosType='IDEALGAS',
(PID.TID 0000.0001) >#atm_Rq=0.6078E-3,
(PID.TID 0000.0001) > Integr_GeoPot=2,
(PID.TID 0000.0001) >#selectFindRoSurf=1,
(PID.TID 0000.0001) > gravity=9.81,
(PID.TID 0000.0001) > rhonil=1.0,
(PID.TID 0000.0001) > rhoConst=1.0,
(PID.TID 0000.0001) > rhoConstFresh=1000.,
(PID.TID 0000.0001) > implicitFreeSurface=.TRUE.,
(PID.TID 0000.0001) > exactConserv=.TRUE.,
(PID.TID 0000.0001) >#uniformLin_PhiSurf=.FALSE.,
(PID.TID 0000.0001) > staggerTimeStep=.TRUE.,
(PID.TID 0000.0001) > readBinaryPrec=64,
(PID.TID 0000.0001) > writeBinaryPrec=64,
(PID.TID 0000.0001) > hFacMin=1.0,
(PID.TID 0000.0001) > saltAdvScheme=3,
(PID.TID 0000.0001) > usePickupBeforeC54=.TRUE.,
(PID.TID 0000.0001) > &
(PID.TID 0000.0001) >
(PID.TID 0000.0001) ># Elliptic solver parameters
(PID.TID 0000.0001) > &PARM02
(PID.TID 0000.0001) > cg2dMaxIters=200,
(PID.TID 0000.0001) >#cg2dTargetResidual=1.E-12,
(PID.TID 0000.0001) > cg2dTargetResWunit=1.E-17,
(PID.TID 0000.0001) > &
(PID.TID 0000.0001) >
(PID.TID 0000.0001) ># Time stepping parameters
(PID.TID 0000.0001) > &PARM03
(PID.TID 0000.0001) > niter0=69120,
(PID.TID 0000.0001) > nTimeSteps=10,
(PID.TID 0000.0001) >#endTime=311040000.,
(PID.TID 0000.0001) > deltaT=450.0,
(PID.TID 0000.0001) > abEps=0.1,
(PID.TID 0000.0001) > forcing_In_AB=.FALSE.,
(PID.TID 0000.0001) > pChkptFreq=2592000.0,
(PID.TID 0000.0001) > chkptFreq=0.0,
(PID.TID 0000.0001) > dumpFreq=2592000.0,
(PID.TID 0000.0001) > taveFreq=2592000.0,
(PID.TID 0000.0001) >#monitorFreq=86400.0,
(PID.TID 0000.0001) > monitorFreq=1.0,
(PID.TID 0000.0001) > &
(PID.TID 0000.0001) >
(PID.TID 0000.0001) ># Gridding parameters
(PID.TID 0000.0001) > &PARM04
(PID.TID 0000.0001) > usingSphericalPolarGrid=.TRUE.,
(PID.TID 0000.0001) > delX=128*2.8125,
(PID.TID 0000.0001) > delY=64*2.8125,
(PID.TID 0000.0001) > delR=100.E2, 250.E2, 300.E2, 200.E2, 150.E2,
(PID.TID 0000.0001) > Ro_SeaLevel=1.E5,
(PID.TID 0000.0001) > phiMin=-90.,
(PID.TID 0000.0001) > rSphere=6370.E3,
(PID.TID 0000.0001) > &
(PID.TID 0000.0001) >
(PID.TID 0000.0001) ># Input datasets
(PID.TID 0000.0001) > &PARM05
(PID.TID 0000.0001) > topoFile='topo.filt_55.bin',
(PID.TID 0000.0001) > &
(PID.TID 0000.0001) 
(PID.TID 0000.0001) S/R INI_PARMS ; starts to read PARM01
(PID.TID 0000.0001) S/R INI_PARMS ; read PARM01 : OK
(PID.TID 0000.0001) S/R INI_PARMS ; starts to read PARM02
(PID.TID 0000.0001) S/R INI_PARMS ; read PARM02 : OK
(PID.TID 0000.0001) S/R INI_PARMS ; starts to read PARM03
(PID.TID 0000.0001) S/R INI_PARMS ; read PARM03 : OK
(PID.TID 0000.0001) S/R INI_PARMS ; starts to read PARM04
(PID.TID 0000.0001) S/R INI_PARMS ; read PARM04 : OK
(PID.TID 0000.0001) S/R INI_PARMS ; starts to read PARM05
(PID.TID 0000.0001) S/R INI_PARMS ; read PARM05 : OK
(PID.TID 0000.0001)  PACKAGES_BOOT: opening data.pkg
(PID.TID 0000.0001)  OPEN_COPY_DATA_FILE: opening file data.pkg
(PID.TID 0000.0001) // =======================================================
(PID.TID 0000.0001) // Parameter file "data.pkg"
(PID.TID 0000.0001) // =======================================================
(PID.TID 0000.0001) ># Packages
(PID.TID 0000.0001) > &PACKAGES
(PID.TID 0000.0001) > useAIM=.TRUE.,
(PID.TID 0000.0001) > useSHAP_FILT=.TRUE.,
(PID.TID 0000.0001) > useZONAL_FILT=.TRUE.,
(PID.TID 0000.0001) > &
(PID.TID 0000.0001) 
(PID.TID 0000.0001)  PACKAGES_BOOT: finished reading data.pkg
(PID.TID 0000.0001)  SHAP_FILT_READPARMS: opening data.shap
(PID.TID 0000.0001)  OPEN_COPY_DATA_FILE: opening file data.shap
(PID.TID 0000.0001) // =======================================================
(PID.TID 0000.0001) // Parameter file "data.shap"
(PID.TID 0000.0001) // =======================================================
(PID.TID 0000.0001) ># Shapiro Filter parameters
(PID.TID 0000.0001) > &SHAP_PARM01
(PID.TID 0000.0001) > shap_filt_uvStar=.FALSE.,
(PID.TID 0000.0001) > shap_filt_TrStagg=.TRUE.,
(PID.TID 0000.0001) > Shap_funct=2,
(PID.TID 0000.0001) > nShapT=4,
(PID.TID 0000.0001) > nShapUV=4,
(PID.TID 0000.0001) > nShapTrPhys=0,
(PID.TID 0000.0001) > nShapUVPhys=0,
(PID.TID 0000.0001) > Shap_Trtau=5400.,
(PID.TID 0000.0001) > Shap_uvtau=1800.,
(PID.TID 0000.0001) > Shap_noSlip=1.,
(PID.TID 0000.0001) >#Shap_diagFreq=2592000.,
(PID.TID 0000.0001) > &
(PID.TID 0000.0001) >
(PID.TID 0000.0001) 
(PID.TID 0000.0001)  SHAP_FILT_READPARMS: finished reading data.shap
(PID.TID 0000.0001) Shap_funct =   /* select Shapiro filter function */
(PID.TID 0000.0001)                       2
(PID.TID 0000.0001)     ;
(PID.TID 0000.0001) nShapT =   /* power of Shapiro filter for Temperat */
(PID.TID 0000.0001)                       4
(PID.TID 0000.0001)     ;
(PID.TID 0000.0001) nShapS =   /* power of Shapiro filter for Salinity */
(PID.TID 0000.0001)                       4
(PID.TID 0000.0001)     ;
(PID.TID 0000.0001) nShapUV =   /* power of Shapiro filter for momentum */
(PID.TID 0000.0001)                       4
(PID.TID 0000.0001)     ;
(PID.TID 0000.0001) shap_filt_uvStar = /* apply filter before Press. Solver */
(PID.TID 0000.0001)                   F
(PID.TID 0000.0001)     ;
(PID.TID 0000.0001) shap_filt_TrStagg = /* filter T,S before calc PhiHyd (staggerTimeStep) */
(PID.TID 0000.0001)                   T
(PID.TID 0000.0001)     ;
(PID.TID 0000.0001) Shap_alwaysExchUV = /* always exch(U,V)    nShapUV times*/
(PID.TID 0000.0001)                   F
(PID.TID 0000.0001)     ;
(PID.TID 0000.0001) Shap_alwaysExchTr = /* always exch(Tracer) nShapTr times*/
(PID.TID 0000.0001)                   F
(PID.TID 0000.0001)     ;
(PID.TID 0000.0001) nShapTrPhys =   /* power of physical-space filter (Tracer) */
(PID.TID 0000.0001)                       0
(PID.TID 0000.0001)     ;
(PID.TID 0000.0001) nShapUVPhys =   /* power of physical-space filter (Momentum) */
(PID.TID 0000.0001)                       0
(PID.TID 0000.0001)     ;
(PID.TID 0000.0001) Shap_Trtau =   /* time scale of Shapiro filter (Tracer) */
(PID.TID 0000.0001)                 5.400000000000000E+03
(PID.TID 0000.0001)     ;
(PID.TID 0000.0001) Shap_TrLength =   /* Length scale of Shapiro filter (Tracer) */
(PID.TID 0000.0001)                 0.000000000000000E+00
(PID.TID 0000.0001)     ;
(PID.TID 0000.0001) Shap_uvtau =   /* time scale of Shapiro filter (Momentum) */
(PID.TID 0000.0001)                 1.800000000000000E+03
(PID.TID 0000.0001)     ;
(PID.TID 0000.0001) Shap_uvLength =   /* Length scale of Shapiro filter (Momentum) */
(PID.TID 0000.0001)                 0.000000000000000E+00
(PID.TID 0000.0001)     ;
(PID.TID 0000.0001) Shap_noSlip =  /* No-slip parameter (0=Free-slip ; 1=No-slip)*/
(PID.TID 0000.0001)                 1.000000000000000E+00
(PID.TID 0000.0001)     ;
(PID.TID 0000.0001) Shap_diagFreq =   /* Frequency^-1 for diagnostic output (s)*/
(PID.TID 0000.0001)                 0.000000000000000E+00
(PID.TID 0000.0001)     ;
(PID.TID 0000.0001)  ZONAL_FILT_READPARMS: opening data.zonfilt
(PID.TID 0000.0001)  OPEN_COPY_DATA_FILE: opening file data.zonfilt
(PID.TID 0000.0001) // =======================================================
(PID.TID 0000.0001) // Parameter file "data.zonfilt"
(PID.TID 0000.0001) // =======================================================
(PID.TID 0000.0001) ># Zonal Filter parameters
(PID.TID 0000.0001) > &ZONFILT_PARM01
(PID.TID 0000.0001) > zonal_filt_uvStar =.FALSE.,
(PID.TID 0000.0001) > zonal_filt_TrStagg=.TRUE.,
(PID.TID 0000.0001) > zonal_filt_lat=45.,
(PID.TID 0000.0001) > zonal_filt_sinpow=2,
(PID.TID 0000.0001) > zonal_filt_cospow=2,
(PID.TID 0000.0001) > zonal_filt_mode2dx=0,
(PID.TID 0000.0001) > &
(PID.TID 0000.0001) >
(PID.TID 0000.0001) 
(PID.TID 0000.0001)  ZONAL_FILT_READPARMS: finished reading data.zonfilt
(PID.TID 0000.0001) %MON XC_max                       =   3.5859375000000E+02
(PID.TID 0000.0001) %MON XC_min                       =   1.4062500000000E+00
(PID.TID 0000.0001) %MON XC_mean                      =   1.8000000000000E+02
(PID.TID 0000.0001) %MON XC_sd                        =   1.0391987692599E+02
(PID.TID 0000.0001) %MON XG_max                       =   3.5718750000000E+02
(PID.TID 0000.0001) %MON XG_min                       =   2.8125000000000E+00
(PID.TID 0000.0001) %MON XG_mean                      =   1.8000000000000E+02
(PID.TID 0000.0001) %MON XG_sd                        =   1.0310795313651E+02
(PID.TID 0000.0001) %MON DXC_max                      =   3.1259246843155E+05
(PID.TID 0000.0001) %MON DXC_min                      =   7.6737143816223E+03
(PID.TID 0000.0001) %MON DXC_mean                     =   1.9908248704234E+05
(PID.TID 0000.0001) %MON DXC_sd                       =   9.6190602240066E+04
(PID.TID 0000.0001) %MON DXF_max                      =   3.1259246843155E+05
(PID.TID 0000.0001) %MON DXF_min                      =   7.6737143816223E+03
(PID.TID 0000.0001) %MON DXF_mean                     =   1.9908248704234E+05
(PID.TID 0000.0001) %MON DXF_sd                       =   9.6190602240066E+04
(PID.TID 0000.0001) %MON DXG_max                      =   3.1268664380261E+05
(PID.TID 0000.0001) %MON DXG_min                      =   1.5342806404640E+04
(PID.TID 0000.0001) %MON DXG_mean                     =   2.0218161485138E+05
(PID.TID 0000.0001) %MON DXG_sd                       =   9.3728538420912E+04
(PID.TID 0000.0001) %MON DXV_max                      =   3.1268664380261E+05
(PID.TID 0000.0001) %MON DXV_min                      =   1.5342806404640E+04
(PID.TID 0000.0001) %MON DXV_mean                     =   2.0218161485138E+05
(PID.TID 0000.0001) %MON DXV_sd                       =   9.3728538420912E+04
(PID.TID 0000.0001) %MON YC_max                       =   8.8593750000000E+01
(PID.TID 0000.0001) %MON YC_min                       =  -8.8593750000000E+01
(PID.TID 0000.0001) %MON YC_mean                      =   0.0000000000000E+00
(PID.TID 0000.0001) %MON YC_sd                        =   5.1955180880375E+01
(PID.TID 0000.0001) %MON YG_max                       =   8.7187500000000E+01
(PID.TID 0000.0001) %MON YG_min                       =  -9.0000000000000E+01
(PID.TID 0000.0001) %MON YG_mean                      =  -1.4285714285714E+00
(PID.TID 0000.0001) %MON YG_sd                        =   5.2365595692639E+01
(PID.TID 0000.0001) %MON DYC_max                      =   3.1268664380261E+05
(PID.TID 0000.0001) %MON DYC_min                      =   3.1268664380261E+05
(PID.TID 0000.0001) %MON DYC_mean                     =   3.1268664380262E+05
(PID.TID 0000.0001) %MON DYC_sd                       =   1.4668330550194E-08
(PID.TID 0000.0001) %MON DYF_max                      =   3.1268664380261E+05
(PID.TID 0000.0001) %MON DYF_min                      =   3.1268664380261E+05
(PID.TID 0000.0001) %MON DYF_mean                     =   3.1268664380262E+05
(PID.TID 0000.0001) %MON DYF_sd                       =   1.4668330550194E-08
(PID.TID 0000.0001) %MON DYG_max                      =   3.1268664380261E+05
(PID.TID 0000.0001) %MON DYG_min                      =   3.1268664380261E+05
(PID.TID 0000.0001) %MON DYG_mean                     =   3.1268664380262E+05
(PID.TID 0000.0001) %MON DYG_sd                       =   1.4668330550194E-08
(PID.TID 0000.0001) %MON DYU_max                      =   3.1268664380261E+05
(PID.TID 0000.0001) %MON DYU_min                      =   3.1268664380261E+05
(PID.TID 0000.0001) %MON DYU_mean                     =   3.1268664380262E+05
(PID.TID 0000.0001) %MON DYU_sd                       =   1.4668330550194E-08
(PID.TID 0000.0001) %MON RA_max                       =   9.7733676797555E+10
(PID.TID 0000.0001) %MON RA_min                       =   2.3992270990190E+09
(PID.TID 0000.0001) %MON RA_mean                      =   6.2244185031957E+10
(PID.TID 0000.0001) %MON RA_sd                        =   3.0074496923945E+10
(PID.TID 0000.0001) %MON RAW_max                      =   9.7733676797555E+10
(PID.TID 0000.0001) %MON RAW_min                      =   2.3992270990190E+09
(PID.TID 0000.0001) %MON RAW_mean                     =   6.2244185031957E+10
(PID.TID 0000.0001) %MON RAW_sd                       =   3.0074496923945E+10
(PID.TID 0000.0001) %MON RAS_max                      =   9.7763121221868E+10
(PID.TID 0000.0001) %MON RAS_min                      =   4.7970089933466E+09
(PID.TID 0000.0001) %MON RAS_mean                     =   6.3213143616159E+10
(PID.TID 0000.0001) %MON RAS_sd                       =   2.9304719741649E+10
(PID.TID 0000.0001) %MON RAZ_max                      =   9.7763121221868E+10
(PID.TID 0000.0001) %MON RAZ_min                      =   4.7970089933466E+09
(PID.TID 0000.0001) %MON RAZ_mean                     =   6.3213143616159E+10
(PID.TID 0000.0001) %MON RAZ_sd                       =   2.9304719741649E+10
(PID.TID 0000.0001) %MON AngleCS_max                  =   1.0000000000000E+00
(PID.TID 0000.0001) %MON AngleCS_min                  =   1.0000000000000E+00
(PID.TID 0000.0001) %MON AngleCS_mean                 =   1.0000000000000E+00
(PID.TID 0000.0001) %MON AngleCS_sd                   =   0.0000000000000E+00
(PID.TID 0000.0001) %MON AngleSN_max                  =   0.0000000000000E+00
(PID.TID 0000.0001) %MON AngleSN_min                  =   0.0000000000000E+00
(PID.TID 0000.0001) %MON AngleSN_mean                 =   0.0000000000000E+00
(PID.TID 0000.0001) %MON AngleSN_sd                   =   0.0000000000000E+00
(PID.TID 0000.0001) 
(PID.TID 0000.0001) INI_PHIREF: PhiRef/g [m] at level Center (integer)
(PID.TID 0000.0001)                      and at level Interface (half-int.) :
(PID.TID 0000.0001)  K=  0.5  ;  r=  100000.0  ;  phiRef/g=       0.000
(PID.TID 0000.0001)  K=  1.0  ;  r=   95000.0  ;  phiRef/g=     418.526
(PID.TID 0000.0001)  K=  1.5  ;  r=   90000.0  ;  phiRef/g=    1219.560
(PID.TID 0000.0001)  K=  2.0  ;  r=   77500.0  ;  phiRef/g=    2044.053
(PID.TID 0000.0001)  K=  2.5  ;  r=   65000.0  ;  phiRef/g=    3664.142
(PID.TID 0000.0001)  K=  3.0  ;  r=   50000.0  ;  phiRef/g=    5384.296
(PID.TID 0000.0001)  K=  3.5  ;  r=   35000.0  ;  phiRef/g=    7701.142
(PID.TID 0000.0001)  K=  4.0  ;  r=   25000.0  ;  phiRef/g=   10200.400
(PID.TID 0000.0001)  K=  4.5  ;  r=   15000.0  ;  phiRef/g=   13521.874
(PID.TID 0000.0001)  K=  5.0  ;  r=    7500.0  ;  phiRef/g=   17856.056
(PID.TID 0000.0001)  K=  5.5  ;  r=       0.0  ;  phiRef/g=   38969.174
(PID.TID 0000.0001) // =======================================================
(PID.TID 0000.0001) // Field Bottom depths (ini_depths) at iteration          1
(PID.TID 0000.0001) // CMIN =          1.000000000000000E+32
(PID.TID 0000.0001) // CMAX =         -1.000000000000000E+32
(PID.TID 0000.0001) // CINT =          0.000000000000000E+00
(PID.TID 0000.0001) // SYMBOLS (CMIN->CMAX): -abcdefghijklmnopqrstuvwxyz+
(PID.TID 0000.0001) //                  0.0: .
(PID.TID 0000.0001) // RANGE I (Lo:Hi:Step):(  -2: 131:   1)
(PID.TID 0000.0001) // RANGE J (Lo:Hi:Step):(  67:  -2:  -1)
(PID.TID 0000.0001) // RANGE K (Lo:Hi:Step):(   1:   1:   1)
(PID.TID 0000.0001) // =======================================================
(PID.TID 0000.0001) // =======================================================
(PID.TID 0000.0001) // END OF FIELD                                          =
(PID.TID 0000.0001) // =======================================================
(PID.TID 0000.0001) 
(PID.TID 0000.0001)  MDSREADFIELD: opening global file: topo.filt_55.bin
(PID.TID 0000.0001) // =======================================================
(PID.TID 0000.0001) // Field Model R_low (ini_masks_etc) at iteration          1
(PID.TID 0000.0001) // CMIN =          1.000000000000000E+32
(PID.TID 0000.0001) // CMAX =         -1.000000000000000E+32
(PID.TID 0000.0001) // CINT =          0.000000000000000E+00
(PID.TID 0000.0001) // SYMBOLS (CMIN->CMAX): -abcdefghijklmnopqrstuvwxyz+
(PID.TID 0000.0001) //                  0.0: .
(PID.TID 0000.0001) // RANGE I (Lo:Hi:Step):(  -2: 131:   1)
(PID.TID 0000.0001) // RANGE J (Lo:Hi:Step):(  67:  -2:  -1)
(PID.TID 0000.0001) // RANGE K (Lo:Hi:Step):(   1:   1:   1)
(PID.TID 0000.0001) // =======================================================
(PID.TID 0000.0001) // =======================================================
(PID.TID 0000.0001) // END OF FIELD                                          =
(PID.TID 0000.0001) // =======================================================
(PID.TID 0000.0001) 
(PID.TID 0000.0001) // =======================================================
(PID.TID 0000.0001) // Field Model Ro_surf (ini_masks_etc) at iteration          1
(PID.TID 0000.0001) // CMIN =          3.500000000000000E+04
(PID.TID 0000.0001) // CMAX =          1.000000000000000E+05
(PID.TID 0000.0001) // CINT =          2.407407407407407E+03
(PID.TID 0000.0001) // SYMBOLS (CMIN->CMAX): -abcdefghijklmnopqrstuvwxyz+
(PID.TID 0000.0001) //                  0.0: .
(PID.TID 0000.0001) // RANGE I (Lo:Hi:Step):(  -2: 131:   1)
(PID.TID 0000.0001) // RANGE J (Lo:Hi:Step):(  67:  -2:  -1)
(PID.TID 0000.0001) // RANGE K (Lo:Hi:Step):(   1:   1:   1)
(PID.TID 0000.0001) // =======================================================
(PID.TID 0000.0001) K =   1
(PID.TID 0000.0001) //                I=7       I=17      I=27      I=37      I=47      I=57      I=67      I=77      I=87      I=97      I=107     I=117     I=127
(PID.TID 0000.0001) // |--J--|**0123456|890123456|890123456|890123456|890123456|890123456|890123456|890123456|890123456|890123456|890123456|890123456|890123456|8901
(PID.TID 0000.0001) //     67 ......................................................................................................................................
(PID.TID 0000.0001) //     66 ......................................................................................................................................
(PID.TID 0000.0001) //     65 ......................................................................................................................................
(PID.TID 0000.0001) //     64 ++++++++++++++++++++++++++++++++++++++++++++++++++++++++++++++++++++++++++++++++++++++++++++++++++++++++++++++++++++++++++++++++++++++
(PID.TID 0000.0001) //     63 ++++++++++++++++++++++++++++++++++++++++++++++++++++++++++++++++++++++++++++++++++++++++++++++++++++++++++++++++++++++++++++++++++++++
(PID.TID 0000.0001) //     62 ++++++++++++++++++++++++++++++++++wwwwwwwwwwwwwwwwwwwwwwww++++++++++++++++++++++++++++++++++++++++++++++++++++++++++++++++++++++++++++
(PID.TID 0000.0001) //     61 +++++++++++++++++++++++++++++++++wwwwwwwwwwwwwwwlllllllwwwwww++++++++++wwww+++++++++++++++++++++++++++++++++++++++++++++++++++++++++++
(PID.TID 0000.0001) //     60 ++++++++++++++++++++++++++++++++++++wwwwwwwwwwlllllllllllwww+++++++++++wwww+++++++++++++++++++++++++++++++++++++++++++++++++++++++++++
(PID.TID 0000.0001) //     59 +++++++++++++++++++++++++++++++++++wwww+++++++wwllllllllllww+++++++++++++++++++++++++++ww+++++++++++++++ww++++++++++++++++++++++++++++
(PID.TID 0000.0001) //     58 +++++++++++++++++++++++++++++++++++++wwwww+++++wwllllllllww+++++++++++++++++++++++++++++++++++++++++++++ww++++++++++++++++++++++++++++
(PID.TID 0000.0001) //     57 www++++++wwwwwwwwww++wwww+++++++++++++++wwww++++wwlllllwww++++++++++++++wwww++++++++++++++++++++++wwwwwwwww++++wwwwwww+++++++wwwwww+++
(PID.TID 0000.0001) //     56 wwww++++++wwwwwwwwwwwww++wwww+++++++++++++www+++wwllwww++++www+++++++++www++++++++++++++www++++++++wwwwwwwww+++wwwwwwwwwwwwwwwwwwwww++
(PID.TID 0000.0001) //     55 w++++++++++wwwwwwwwwwwwww+++w+++++++++++++ww+++++wllw++++++++++++++++wwww+++++++++++++++w++++++++++wwwwwwww+++++wwwwwwwwwwwwwwwww+++++
(PID.TID 0000.0001) //     54 ++++++++++wwwwwwllwwwwwwwww+www+++++++++ww++++++++ww+++++++++++++++++www+++++++++++++++++++++++++++wwwwwwwwwwwwww++wwwwwwwwww+++++++++
(PID.TID 0000.0001) //     53 +++++++++++w++++++wwwwwwwwwwwww++++++++++++ww++++++++++++++++++++w++++++++++++++++++++++++++++++++++++wwwwwwwwwwwwwww++++++ww+++++++++
(PID.TID 0000.0001) //     52 ++++++++++++++++++++wwwwwwwwww++++++++++wwwww++++++++++++++++++++++++++++++++++++++++++w++++++++++wwwwwwwwwwwwwwwwww+++++++ww+++++++++
(PID.TID 0000.0001) //     51 +++++++++++++++++++++wwwllwwwwww++++++++wwwwww++++++++++++++++++++++++++w++++++++++++++w+++++w++wwlwwwlwwwwwwwwwwwwww+++++++++++++++++
(PID.TID 0000.0001) //     50 ++++++++++++++++++++++wwwwwwwwww++w+++++www++++++++++++++++++++++++++wwwwwww++++++++++++++wwwwwwwlllwllwwwwwwwwwwwwww+++++++++++++++++
(PID.TID 0000.0001) //     49 +++++++++++++++++++++++wwwllwwwwwww++w+++ww++++++++++++++++++++++++wwllwwwwww+++++++++++++++wwwllwwllllwwwwwwww+wwww++++++++++++++++++
(PID.TID 0000.0001) //     48 +++++++++++++++++++++++wwwlllwwww+++++++ww++++++++++++++++++++++w+www+wwwwww+++++lll+++++++wlllllllwwwwwwwwwww++ww+++w++++++++++++++++
(PID.TID 0000.0001) //     47 +++++++++++++++++++++++wwwllllwww+++++ww++++++++++++++++++++++++www++w++w+wwwwwwwlllw+++++wlllllwwwwwlwwwwwwww+ww+++++++++++++++++++++
(PID.TID 0000.0001) //     46 +++++++++++++++++++++++wllllllwww++++ww+++++++++++++++++++++++++www+++++w+w++wwwwllll+wwwwwllllwllllllllwwww++++w+++w+++++++++++++++++
(PID.TID 0000.0001) //     45 ++++++++++++++++++++++++wwwlllww++++ww+++++++++++++++++++++++++++wwwww+++++++++wwwwlllwwwlllll------lllllwww++++++www+++++++++++++++++
(PID.TID 0000.0001) //     44 +++++++++++++++++++++++++wwwwwww++++++++++++++++++++++++++++++++lwwwww+w+++++++wwwwwllwwwlllwlll-lll--llwww+++++++++++++++++++++++++++
(PID.TID 0000.0001) //     43 ++++++++++++++++++++++++++wwlwww+++++++++++++++++++++++++++++++wwwwwwwwww+++++wwwww++lllwwlw++wl---lllllwwwwww++++++++++++++++++++++++
(PID.TID 0000.0001) //     42 ++++++++++++++++++++++++++w+wlww+++++++++++++++++++++++++++++++ww+++wwwwww+ww+wwwwww+wwwwww++w+++wlwwlllwwwwww++++++++++++++++++++++++
(PID.TID 0000.0001) //     41 +++++++++++++++++++++++++++++llw+++++++++++++++++++++++++++++++++++wwwwwwwwww++wwwww+++w+++++wwwww++wwwwwwwwww++++++++++++++++++++++++
(PID.TID 0000.0001) //     40 +++++++++++++++++++++++++++++wllw++++++++++++++++++++++++++++++++++wwwwwwwwww++wwwww+++++++++wwwww++wwwww+++++++++++++++++++++++++++++
(PID.TID 0000.0001) //     39 ++++++++++++++++++++++++++++++wllww++++++w+++++++++++++++++++++++++wwwwwwwwwwwwww+wwwww++++++ww+w++++wwww+++++++++++++++++++++++++++++
(PID.TID 0000.0001) //     38 +++++++++++++++++++++++++++++++++wwww++++++++++++++++++++++++++++++++ww+++wwwwwww+lww++++++++ww+++++++wwww++++w+++++++++++++++++++++++
(PID.TID 0000.0001) //     37 +++++++++++++++++++++++++++++++++++ww+++++++++++++++++++++++++www++++ww++wwwwwwwlww+++++++++++w++++++++++w++++++++++++++++++++++++++++
(PID.TID 0000.0001) //     36 +++++++++++++++++++++++++++++++++++++ww+wwww++++++++++++++++++www++++wwwwwwwwwwwlwwww+++++++++w+++++++++++++++++++++++++++++++++++++++
(PID.TID 0000.0001) //     35 ++++++++++++++++++++++++++++++++++++++wwwl+www++++++++++++++++++++++++wwwwwwwwwwllww+++++++++++++++++++++++++++w++++++++++++++++++++++
(PID.TID 0000.0001) //     34 +++++++++++++++++++++++++++++++++++++++wlw+www++++++++++++++++++++++++wwwwwwwwwwwww++++++++++++++++++w+w+++ww+++++++++++++++++++++++++
(PID.TID 0000.0001) //     33 +++++++++++++++++++++++++++++++++++++++lw++ww++++++++++++++++++++++++++ww++wwwwww+++++++++++++++++++++w++++ww+w+++++++++++++++++++++++
(PID.TID 0000.0001) //     32 ++++++++++++++++++++++++++++++++++++++wl+++++++++++++++++++++++++++++++ww+wwwwwlw++++++++++++++++++++++++++++ww+++w+++++++++++++++++++
(PID.TID 0000.0001) //     31 ++++++++++++++++++++++++++++++++++++++lw++++++++++++++++++++++++++++++++wwwwwwwww++++++++++++++++++++++w++++++w++++wllw+++++++++++++++
(PID.TID 0000.0001) //     30 ++++++++++++++++++++++++++++++++++++++wl++++++++++++ww++++++++++++++++++wwwwwwwww++++++++++++++++++++++++www+++++++++lww++++++++++++++
(PID.TID 0000.0001) //     35 ++++++++++++++++++++++++++++++++++++++wwwl+www++++++++++++++++++++++++wwwwwwwwwwllww+++++++++++++++++++++++++++w++++++++++++++++++++++
(PID.TID 0000.0001) //     34 +++++++++++++++++++++++++++++++++++++++wlw+www++++++++++++++++++++++++wwwwwwwwwwwww++++++++++++++++++w+w+++ww+++++++++++++++++++++++++
(PID.TID 0000.0001) //     33 +++++++++++++++++++++++++++++++++++++++lw++ww++++++++++++++++++++++++++ww++wwwwww+++++++++++++++++++++w++++ww+w+++++++++++++++++++++++
(PID.TID 0000.0001) //     32 ++++++++++++++++++++++++++++++++++++++wl+++++++++++++++++++++++++++++++ww+wwwwwlw++++++++++++++++++++++++++++ww+++w+++++++++++++++++++
(PID.TID 0000.0001) //     31 ++++++++++++++++++++++++++++++++++++++lw++++++++++++++++++++++++++++++++wwwwwwwww++++++++++++++++++++++w++++++w++++wllw+++++++++++++++
(PID.TID 0000.0001) //     30 ++++++++++++++++++++++++++++++++++++++wl++++++++++++ww++++++++++++++++++wwwwwwwww++++++++++++++++++++++++www+++++++++lww++++++++++++++
(PID.TID 0000.0001) //     29 +++++++++++++++++++++++++++++++++++++++lw+++w++ww+wwww++++++++++++++++++wwwwwwwww++++++++++++++++++++++++++++w+w++++++++++++++++++++++
(PID.TID 0000.0001) //     28 +++++++++++++++++++++++++++++++++++++++wllw+wwwwwwwww+++++++++++++++++++wwwwwwwww+++++++++++++++++++++++++++++++++++++++++++++++++++++
(PID.TID 0000.0001) //     27 ++++++++++++++++++++++++++++++++++++++++lllw+wwwwwwww++++++++++++++++++wwwwwwwwww+++w+++++++++++++++++++++++++++++++++++++++++++++++++
(PID.TID 0000.0001) //     26 +++++++++++++++++++++++++++++++++++++++++wllw++wwwwww++++++++++++++++++wwwwwwww++++ww+++++++++++++++++++++++++++w+++++w+++++++++++++++
(PID.TID 0000.0001) //     25 ++++++++++++++++++++++++++++++++++++++++++llw++wwwwww+++++++++++++++++++wwwwwww++++w++++++++++++++++++++++++ww++www+++w+++++++++++++++
(PID.TID 0000.0001) //     24 ++++++++++++++++++++++++++++++++++++++++++llw++wwww+++++++++++++++++++++wwwwwww++++w++++++++++++++++++++++++wwwwwww++++w++++++++++++++
(PID.TID 0000.0001) //     23 ++++++++++++++++++++++++++++++++++++++++++ll++++ww++++++++++++++++++++++wwwwww++++++++++++++++++++++++++++++wwwwwww++++w++++++++++++++
(PID.TID 0000.0001) //     22 ++++++++++++++++++++++++++++++++++++++++++lw++++ww+++++++++++++++++++++++wwwwl+++++++++++++++++++++++++++++++ww+++++++++w+++++++++++++
(PID.TID 0000.0001) //     21 +++++++++++++++++++++++++++++++++++++++++wlw++++++++++++++++++++++++++++++www+++++++++++++++++++++++++++++++++++++++++++w+++++++++++++
(PID.TID 0000.0001) //     20 +++++++++++++++++++++++++++++++++++++++++wlw+++++++++++++++++++++++++++++++++++++++++++++++++++++++++++++++++++++++++++ww+++++++++++++
(PID.TID 0000.0001) //     19 +w+++++++++++++++++++++++++++++++++++++++ww+++++++++++++++++++++++++++++++++++++++++++++++++++++++++++++++++++++++++++ww+++++++++w++++
(PID.TID 0000.0001) //     18 w++++++++++++++++++++++++++++++++++++++++www++++++++++++++++++++++++++++++++++++++++++++++++++++++++++++++++++++++++++++++++++++w+++++
(PID.TID 0000.0001) //     17 +++++++++++++++++++++++++++++++++++++++++ww++++++++++++++++++++++++++++++++++++++++++++++++++++++++++++++++++++++++++++++++++++w++++++
(PID.TID 0000.0001) //     16 ++++++++++++++++++++++++++++++++++++++++www+++++++++++++++++++++++++++++++++++++++++++++++++++++++++++++++++++++++++++++++++++++++++++
(PID.TID 0000.0001) //     15 ++++++++++++++++++++++++++++++++++++++++www+++++++++++++++++++++++++++++++++++++++++++++++++++++++++++++++++++++++++++++++++++++++++++
(PID.TID 0000.0001) //     14 ++++++++++++++++++++++++++++++++++++++++++++++++++++++++++++++++++++++++++++++++++++++++++++++++++++++++++++++++++++++++++++++++++++++
(PID.TID 0000.0001) //     13 ++++++++++++++++++++++++++++++++++++++++++w+++++++++++++++++++++++++++++++++++++++++++++++++++++++++++++++++++++++++++++++++++++++++++
(PID.TID 0000.0001) //     12 ++++++++++++++++++++++++++++++++++++++++++++++++++++++++++++++++++++++++++++++++++++++++++++++++++++++++++++++++++++++++++++++++++++++
(PID.TID 0000.0001) //     11 ++++++++++++++++++++++++++++++++++++++++++++++++++++++++++++++++++++++++++++++++++++++++++++++++++++++++++++++++++++++++++++++++++++++
(PID.TID 0000.0001) //     10 +++++++++++++++++++++++++++++++++++++++++++++w++++++++++++++++++++++++++++++++++++++++++++++++++++++++++++++++++++++++++++++++++++++++
(PID.TID 0000.0001) //      9 +++++++++++++++++++++++++++++++++++++++++++ww+++++++++++++++++++++++++++++++++++++++wwww+++++++++wwwwwwwwwwwwwwwwwwwww++++++++++++++++
(PID.TID 0000.0001) //      8 +++++++++++++++++++++++++++++++++++++++++wwww+++++++++++++++++++++++++++++++++wwwwwlllllllww+wwlllllllllllllllllllllllwwwwww++++++++++
(PID.TID 0000.0001) //      7 +++++++++++++++++++++++++++++++++++++++++wwwww++++++++++++++++wwwwllllllllllllllllllllllllwwwllllllllllllllllllllllllllllllllwww++++++
(PID.TID 0000.0001) //      6 ++++++++++++++++wwwwwwwwwwwwwwwwwwwwwwwwwwwww+++++++++++++++wwlllllllllllllllllllllllllllwwllllllllllllllllllllllllllllllllwww++++++++
(PID.TID 0000.0001) //      5 ++++++++++++wwwwwwwllllwwwwwwwwwwwwwwww++++++++++w+++++wwwwwllllllllllllllllllllllllllllllllllllllllllllllllllllllllllllllllwww+++++++
(PID.TID 0000.0001) //      4 ++++++++++++wwwwwwwwwwwwwwwwwllllllwwwww+++++++wwwwwwwwwwwwwlllllllllllllllllllllllllllllllllllllllllllllllllllllllllllllwwww+++++++++
(PID.TID 0000.0001) //      3 www++++++++++++wwwwwwwwwwwwwllllllwwwwwwwwwwwwwwwwwwwwwwwlllllllllllllllllllllllllllllllllllllllllllllllllllllllllllllllllllllwwwww+++
(PID.TID 0000.0001) //      2 llllllllllllllllllllllllllllllllllwwwwwwwwwwllllllllllllllllllllllllllllllllllllllllllllllllllllllllllllllllllllllllllllllllllllllllll
(PID.TID 0000.0001) //      1 llllllllllllllllllllllllllllllllllllllllllllllllllllllllllllllllllllllllllllllllllllllllllllllllllllllllllllllllllllllllllllllllllllll
(PID.TID 0000.0001) //      0 ......................................................................................................................................
(PID.TID 0000.0001) //     -1 ......................................................................................................................................
(PID.TID 0000.0001) //     -2 ......................................................................................................................................
(PID.TID 0000.0001) // =======================================================
(PID.TID 0000.0001) // END OF FIELD                                          =
(PID.TID 0000.0001) // =======================================================
(PID.TID 0000.0001) 
(PID.TID 0000.0001) // =======================================================
(PID.TID 0000.0001) // Field hFacC at iteration          1
(PID.TID 0000.0001) // CMIN =          1.000000000000000E+00
(PID.TID 0000.0001) // CMAX =          1.000000000000000E+00
(PID.TID 0000.0001) // CINT =          0.000000000000000E+00
(PID.TID 0000.0001) // SYMBOLS (CMIN->CMAX): -abcdefghijklmnopqrstuvwxyz+
(PID.TID 0000.0001) //                  0.0: .
(PID.TID 0000.0001) // RANGE I (Lo:Hi:Step):(  -2: 131:   1)
(PID.TID 0000.0001) // RANGE J (Lo:Hi:Step):(  67:  -2:  -1)
(PID.TID 0000.0001) // RANGE K (Lo:Hi:Step):(   1:   1:   1)
(PID.TID 0000.0001) // =======================================================
(PID.TID 0000.0001) // =======================================================
(PID.TID 0000.0001) // END OF FIELD                                          =
(PID.TID 0000.0001) // =======================================================
(PID.TID 0000.0001) 
(PID.TID 0000.0001) // =======================================================
(PID.TID 0000.0001) // Field hFacW at iteration          1
(PID.TID 0000.0001) // CMIN =          1.000000000000000E+00
(PID.TID 0000.0001) // CMAX =          1.000000000000000E+00
(PID.TID 0000.0001) // CINT =          0.000000000000000E+00
(PID.TID 0000.0001) // SYMBOLS (CMIN->CMAX): -abcdefghijklmnopqrstuvwxyz+
(PID.TID 0000.0001) //                  0.0: .
(PID.TID 0000.0001) // RANGE I (Lo:Hi:Step):(  -2: 131:   1)
(PID.TID 0000.0001) // RANGE J (Lo:Hi:Step):(  67:  -2:  -1)
(PID.TID 0000.0001) // RANGE K (Lo:Hi:Step):(   1:   1:   1)
(PID.TID 0000.0001) // =======================================================
(PID.TID 0000.0001) // =======================================================
(PID.TID 0000.0001) // END OF FIELD                                          =
(PID.TID 0000.0001) // =======================================================
(PID.TID 0000.0001) 
(PID.TID 0000.0001) // =======================================================
(PID.TID 0000.0001) // Field hFacS at iteration          1
(PID.TID 0000.0001) // CMIN =          1.000000000000000E+00
(PID.TID 0000.0001) // CMAX =          1.000000000000000E+00
(PID.TID 0000.0001) // CINT =          0.000000000000000E+00
(PID.TID 0000.0001) // SYMBOLS (CMIN->CMAX): -abcdefghijklmnopqrstuvwxyz+
(PID.TID 0000.0001) //                  0.0: .
(PID.TID 0000.0001) // RANGE I (Lo:Hi:Step):(  -2: 131:   1)
(PID.TID 0000.0001) // RANGE J (Lo:Hi:Step):(  67:  -2:  -1)
(PID.TID 0000.0001) // RANGE K (Lo:Hi:Step):(   1:   1:   1)
(PID.TID 0000.0001) // =======================================================
(PID.TID 0000.0001) // =======================================================
(PID.TID 0000.0001) // END OF FIELD                                          =
(PID.TID 0000.0001) // =======================================================
(PID.TID 0000.0001) 
(PID.TID 0000.0001) 
(PID.TID 0000.0001) // ===================================
(PID.TID 0000.0001) // GAD parameters :
(PID.TID 0000.0001) // ===================================
(PID.TID 0000.0001) tempAdvScheme =   /* Temp. Horiz.Advection scheme selector */
(PID.TID 0000.0001)                       2
(PID.TID 0000.0001)     ;
(PID.TID 0000.0001) tempVertAdvScheme =   /* Temp. Vert. Advection scheme selector */
(PID.TID 0000.0001)                       2
(PID.TID 0000.0001)     ;
(PID.TID 0000.0001) tempMultiDimAdvec =   /* use Muti-Dim Advec method for Temp */
(PID.TID 0000.0001)                   F
(PID.TID 0000.0001)     ;
(PID.TID 0000.0001) AdamsBashforthGt =   /* apply Adams-Bashforth extrapolation on Gt */
(PID.TID 0000.0001)                   T
(PID.TID 0000.0001)     ;
(PID.TID 0000.0001) AdamsBashforth_T =   /* apply Adams-Bashforth extrapolation on Temp */
(PID.TID 0000.0001)                   F
(PID.TID 0000.0001)     ;
(PID.TID 0000.0001) saltAdvScheme =   /* Salt. Horiz.advection scheme selector */
(PID.TID 0000.0001)                       3
(PID.TID 0000.0001)     ;
(PID.TID 0000.0001) saltVertAdvScheme =   /* Salt. Vert. Advection scheme selector */
(PID.TID 0000.0001)                       3
(PID.TID 0000.0001)     ;
(PID.TID 0000.0001) saltMultiDimAdvec =   /* use Muti-Dim Advec method for Salt */
(PID.TID 0000.0001)                   F
(PID.TID 0000.0001)     ;
(PID.TID 0000.0001) AdamsBashforthGs =   /* apply Adams-Bashforth extrapolation on Gs */
(PID.TID 0000.0001)                   T
(PID.TID 0000.0001)     ;
(PID.TID 0000.0001) AdamsBashforth_S =   /* apply Adams-Bashforth extrapolation on Salt */
(PID.TID 0000.0001)                   F
(PID.TID 0000.0001)     ;
(PID.TID 0000.0001) // ===================================
- INPHYS: k,SIG, SIGH,   SIGL,   WVI(1),  WVI(2):
  1   0.0750   0.1500  -2.5903   0.8306   0.5757
  2   0.2500   0.3500  -1.3863   1.4427   0.4854
  3   0.5000   0.6500  -0.6931   2.2818   0.5987
  4   0.7750   0.9000  -0.2549   4.9116   0.7344
  5   0.9500   1.0000  -0.0513   0.0000   0.0377
- INPHYS: end setup WVI.
(PID.TID 0000.0001)  AIM_READ_PHYSPARMS: opening data.aimphys
(PID.TID 0000.0001)  OPEN_COPY_DATA_FILE: opening file data.aimphys
(PID.TID 0000.0001) // =======================================================
(PID.TID 0000.0001) // Parameter file "data.aimphys"
(PID.TID 0000.0001) // =======================================================
(PID.TID 0000.0001) ># AIM physics package parameters:
(PID.TID 0000.0001) >
(PID.TID 0000.0001) >C--   AIM interface parameter (namelist AIM_PARAMS):
(PID.TID 0000.0001) >#     aim_useFMsurfBC :: select surface B.C. from Franco Molteni
(PID.TID 0000.0001) >#     aim_useMMsurfFc :: select Monthly Mean surface forcing (e.g., NCEP)
(PID.TID 0000.0001) >#     aim_surfPotTemp :: surf.Temp input file is in Pot.Temp (aim_useMMsurfFc)
(PID.TID 0000.0001) >#     aim_energPrecip :: account for energy of precipitation (snow & rain temp)
(PID.TID 0000.0001) >#     aim_splitSIOsFx :: compute separately Sea-Ice & Ocean surf. Flux
(PID.TID 0000.0001) >#     aim_LandFile :: file name for Land fraction [0-1]
(PID.TID 0000.0001) >#     aim_MMsufx   :: sufix for all Monthly Mean surface forcing files
(PID.TID 0000.0001) >#     aim_MMsufxLength :: Length of sufix (Monthly Mean surf. forc. files)
(PID.TID 0000.0001) >#     aim_albFile  :: file name for Albedo input file   (F.M. surfBC)
(PID.TID 0000.0001) >#     aim_vegFile  :: file name for vegetation fraction (F.M. surfBC)
(PID.TID 0000.0001) >#     aim_sstFile  :: file name for  Sea.Surf.Temp      (F.M. surfBC)
(PID.TID 0000.0001) >#     aim_lstFile  :: file name for Land.Surf.Temp      (F.M. surfBC)
(PID.TID 0000.0001) >#     aim_oiceFile :: file name for Sea Ice fraction    (F.M. surfBC)
(PID.TID 0000.0001) >#     aim_snowFile :: file name for Snow depth          (F.M. surfBC)
(PID.TID 0000.0001) >#     aim_swcFile  :: file name for Soil Water content  (F.M. surfBC)
(PID.TID 0000.0001) >#     aim_dragStrato :: stratospheric-drag damping time scale (s)
(PID.TID 0000.0001) >#     aim_clrSkyDiag :: compute clear-sky radiation for diagnostics
(PID.TID 0000.0001) >#     aim_taveFreq :: Frequency^-1 for time-average output (s)
(PID.TID 0000.0001) >#     aim_diagFreq :: Frequency^-1 for diagnostic output (s)
(PID.TID 0000.0001) >#     aim_tendFreq :: Frequency^-1 for tendencies output (s)
(PID.TID 0000.0001) > &AIM_PARAMS
(PID.TID 0000.0001) >   aim_useFMsurfBC=.FALSE.,
(PID.TID 0000.0001) >   aim_useMMsurfFc=.TRUE.,
(PID.TID 0000.0001) >   aim_surfPotTemp=.TRUE.,
(PID.TID 0000.0001) >   aim_LandFile= 'landFrc.fullCell.bin',
(PID.TID 0000.0001) >   aim_MMsufx = '.ft.bin',
(PID.TID 0000.0001) >   aim_MMsufxLength = 7,
(PID.TID 0000.0001) > &
(PID.TID 0000.0001) >
(PID.TID 0000.0001) >#--   Physical constants
(PID.TID 0000.0001) >#       P0    = reference pressure                 [Pa=N/m2]
(PID.TID 0000.0001) >#       GG    = gravity accel.                     [m/s2]
(PID.TID 0000.0001) >#       RD    = gas constant for dry air           [J/kg/K]
(PID.TID 0000.0001) >#       CP    = specific heat at constant pressure [J/kg/K]
(PID.TID 0000.0001) >#       ALHC  = latent heat of condensation        [J/g]
(PID.TID 0000.0001) >#       ALHF  = latent heat of freezing            [J/g]
(PID.TID 0000.0001) >#       SBC   = Stefan-Boltzmann constant
(PID.TID 0000.0001) >#     rainCP  = heat capacity of liquid water      [J/g/K]
(PID.TID 0000.0001) >#     tFreeze = freezing temperature of pure water [K]
(PID.TID 0000.0001) >
(PID.TID 0000.0001) >#--   Constants for forcing fields (namelist AIM_PAR_FOR):
(PID.TID 0000.0001) >#      SOLC   = Solar constant (area averaged) in W/m^2
(PID.TID 0000.0001) >#      ALBSEA = Albedo over sea
(PID.TID 0000.0001) >#      ALBICE = Albedo over sea ice (for ice fraction = 1)
(PID.TID 0000.0001) >#      ALBSN  = Albedo over snow (for snow depth > SDALB)
(PID.TID 0000.0001) >#      SDALB  = Snow depth (mm water) corresponding to maximum albedo
(PID.TID 0000.0001) >#      SWCAP  = Soil wetness at field capacity (volume fraction)
(PID.TID 0000.0001) >#      SWWIL  = Soil wetness at wilting point  (volume fraction)
(PID.TID 0000.0001) >#      hSnowWetness :: snow depth (m) corresponding to maximum wetness
(PID.TID 0000.0001) > &AIM_PAR_FOR
(PID.TID 0000.0001) > &
(PID.TID 0000.0001) >
(PID.TID 0000.0001) >#--   Constants for surface fluxes (namelist AIM_PAR_SFL):
(PID.TID 0000.0001) >#      FWIND0 = ratio of near-sfc wind to lowest-level wind
(PID.TID 0000.0001) >#      FTEMP0 = weight for near-sfc temperature extrapolation (0-1) :
(PID.TID 0000.0001) >#               1 : linear extrapolation from two lowest levels
(PID.TID 0000.0001) >#               0 : constant potential temperature ( = lowest level)
(PID.TID 0000.0001) >#      FHUM0  = weight for near-sfc specific humidity extrapolation (0-1) :
(PID.TID 0000.0001) >#               1 : extrap. with constant relative hum. ( = lowest level)
(PID.TID 0000.0001) >#               0 : constant specific hum. ( = lowest level)
(PID.TID 0000.0001) >#      CDL    = drag coefficient for momentum over land
(PID.TID 0000.0001) >#      CDS    = drag coefficient for momentum over sea
(PID.TID 0000.0001) >#      CHL    = heat exchange coefficient over land
(PID.TID 0000.0001) >#      CHS    = heat exchange coefficient over sea
(PID.TID 0000.0001) >#      VGUST  = wind speed for sub-grid-scale gusts
(PID.TID 0000.0001) >#      CTDAY  = daily-cycle correction (dTskin/dSSRad)
(PID.TID 0000.0001) >#      DTHETA = Potential temp. gradient for stability correction
(PID.TID 0000.0001) >#      dTstab = potential temp. increment for stability function derivative
(PID.TID 0000.0001) >#      FSTAB  = Amplitude of stability correction (fraction)
(PID.TID 0000.0001) >#      HDRAG  = Height scale for orographic correction
(PID.TID 0000.0001) >#      FHDRAG = Amplitude of orographic correction (fraction)
(PID.TID 0000.0001) > &AIM_PAR_SFL
(PID.TID 0000.0001) > &
(PID.TID 0000.0001) >
(PID.TID 0000.0001) >#--   Convection constants (namelist AIM_PAR_CNV):
(PID.TID 0000.0001) >#      PSMIN  = minimum (norm.) sfc. pressure for the occurrence of convection
(PID.TID 0000.0001) >#      TRCNV  = time of relaxation (in hours) towards reference state
(PID.TID 0000.0001) >#      QBL    = specific hum. threshold in the boundary layer
(PID.TID 0000.0001) >#      RHBL   = relative hum. threshold in the boundary layer
(PID.TID 0000.0001) >#      RHIL   = rel. hum. threshold in intermed. layers for secondary mass flux
(PID.TID 0000.0001) >#      ENTMAX = max. entrainment as a fraction of cloud-base mass flux
(PID.TID 0000.0001) >#      SMF    = ratio between secondary and primary mass flux at cloud-base
(PID.TID 0000.0001) > &AIM_PAR_CNV
(PID.TID 0000.0001) > &
(PID.TID 0000.0001) >
(PID.TID 0000.0001) >#--   Constants for large-scale condensation (namelist AIM_PAR_LSC):
(PID.TID 0000.0001) >#      TRLSC  = Relaxation time (in hours) for specific humidity
(PID.TID 0000.0001) >#      RHLSC  = Maximum relative humidity threshold (at sigma=1)
(PID.TID 0000.0001) >#      DRHLSC = Vertical range of relative humidity threshold
(PID.TID 0000.0001) >#      QSMAX  = used to define the maximum latent heat release
(PID.TID 0000.0001) > &AIM_PAR_LSC
(PID.TID 0000.0001) > &
(PID.TID 0000.0001) >
(PID.TID 0000.0001) >#--   Radiation constants (namelist AIM_PAR_RAD):
(PID.TID 0000.0001) >#      RHCL1  = relative hum. corresponding to cloud cover = 0
(PID.TID 0000.0001) >#      RHCL2  = relative hum. corresponding to cloud cover = 1
(PID.TID 0000.0001) >#      QACL1  = specific hum. threshold for cloud cover in the upper troposphere
(PID.TID 0000.0001) >#      QACL2  = specific hum. threshold for cloud cover in the upper troposphere
(PID.TID 0000.0001) >#      ALBCL  = cloud albedo (for cloud cover = 1)
(PID.TID 0000.0001) >#      EPSSW  = fraction of incoming solar radiation absorbed by ozone
(PID.TID 0000.0001) >#      EPSLW  = fraction of surface LW radiation emitted directly to space
(PID.TID 0000.0001) >#      EMISFC = longwave surface emissivity
(PID.TID 0000.0001) >#--:            shortwave absorptivities (for dp = 10^5 Pa) :
(PID.TID 0000.0001) >#      ABSDRY = abs. of dry air      (visible band)
(PID.TID 0000.0001) >#      ABSAER = abs. of aerosols     (visible band)
(PID.TID 0000.0001) >#      ABSWV1 = abs. of water vapour (visible band, for dq = 1 g/kg)
(PID.TID 0000.0001) >#      ABSWV2 = abs. of water vapour (near IR band, for dq = 1 g/kg)
(PID.TID 0000.0001) >#      ABSCL1 = abs. of clouds       (visible band, constant term)
(PID.TID 0000.0001) >#      ABSCL2 = abs. of clouds       (visible band, for dw = 1 g/kg)
(PID.TID 0000.0001) >#--:            longwave absorptivities (per dp = 10^5 Pa) :
(PID.TID 0000.0001) >#      ABLWIN = abs. of air in "window" band
(PID.TID 0000.0001) >#      ABLCO2 = abs. of air in CO2 band
(PID.TID 0000.0001) >#      ABLWV1 = abs. of water vapour in H2O band 1 (weak),   for dq = 1 g/kg
(PID.TID 0000.0001) >#      ABLWV2 = abs. of water vapour in H2O band 2 (strong), for dq = 1 g/kg
(PID.TID 0000.0001) >#      ABLCL1 = abs. of clouds       in "window" band,       constant term
(PID.TID 0000.0001) >#      ABLCL2 = abs. of clouds       in "window" band,       for dw = 1 g/kg
(PID.TID 0000.0001) > &AIM_PAR_RAD
(PID.TID 0000.0001) > &
(PID.TID 0000.0001) >
(PID.TID 0000.0001) >#--   Constants for vertical dif. and sh. conv. (namelist AIM_PAR_VDI):
(PID.TID 0000.0001) >#      TRSHC  = relaxation time (in hours) for shallow convection
(PID.TID 0000.0001) >#      TRVDI  = relaxation time (in hours) for moisture diffusion
(PID.TID 0000.0001) >#      TRVDS  = relaxation time (in hours) for super-adiab. conditions
(PID.TID 0000.0001) >#      RHGRAD = maximum gradient of relative humidity (d_RH/d_sigma)
(PID.TID 0000.0001) >#      SEGRAD = minimum gradient of dry static energy (d_DSE/d_phi)
(PID.TID 0000.0001) > &AIM_PAR_VDI
(PID.TID 0000.0001) > &
(PID.TID 0000.0001) >
(PID.TID 0000.0001) 
(PID.TID 0000.0001)  AIM_READ_PHYSPARMS: finished reading data.aimphys
(PID.TID 0000.0001) 
(PID.TID 0000.0001) // ===================================
(PID.TID 0000.0001) // AIM physics parameters :
(PID.TID 0000.0001) // ===================================
(PID.TID 0000.0001) useLand =   /* use Land package for surf.BC over land  */
(PID.TID 0000.0001)                   F
(PID.TID 0000.0001)     ;
(PID.TID 0000.0001) aim_useFMsurfBC =   /* F.Molteni surf. BC scheme on/off flag */
(PID.TID 0000.0001)                   F
(PID.TID 0000.0001)     ;
(PID.TID 0000.0001) aim_useMMsurfFc =   /* Monthly Mean surf. Forcing on/off flag */
(PID.TID 0000.0001)                   T
(PID.TID 0000.0001)     ;
(PID.TID 0000.0001) aim_surfPotTemp =   /* Surf Temp file in Pot.Temp on/off flag */
(PID.TID 0000.0001)                   T
(PID.TID 0000.0001)     ;
(PID.TID 0000.0001) aim_energPrecip = /* account for energy of precip. on/off flag */
(PID.TID 0000.0001)                   F
(PID.TID 0000.0001)     ;
(PID.TID 0000.0001) aim_splitSIOsFx = /* separate Sea-Ice & Ocean Flux on/off flag */
(PID.TID 0000.0001)                   F
(PID.TID 0000.0001)     ;
(PID.TID 0000.0001) aim_dragStrato= /* stratospheric-drag damping time scale (s) */
(PID.TID 0000.0001)                 0.000000000000000E+00
(PID.TID 0000.0001)     ;
(PID.TID 0000.0001) aim_clrSkyDiag = /* do clear-sky radiation diagnostics */
(PID.TID 0000.0001)                   F
(PID.TID 0000.0001)     ;
(PID.TID 0000.0001) aim_taveFreq =   /* Frequency^-1 for time-Aver. output (s) */
(PID.TID 0000.0001)                 2.592000000000000E+06
(PID.TID 0000.0001)     ;
(PID.TID 0000.0001) aim_diagFreq =   /* Frequency^-1 for diagnostic output (s) */
(PID.TID 0000.0001)                 2.592000000000000E+06
(PID.TID 0000.0001)     ;
(PID.TID 0000.0001) aim_tendFreq =   /* Frequency^-1 for tendencies output (s) */
(PID.TID 0000.0001)                 0.000000000000000E+00
(PID.TID 0000.0001)     ;
(PID.TID 0000.0001) AIM_FOR:   SOLC =   /* Solar constant (area averaged) in W/m2 */
(PID.TID 0000.0001)                 3.420000000000000E+02
(PID.TID 0000.0001)     ;
(PID.TID 0000.0001) AIM_FOR: ALBSEA =   /* Albedo over sea [0-1]      */
(PID.TID 0000.0001)                 7.000000000000001E-02
(PID.TID 0000.0001)     ;
(PID.TID 0000.0001) AIM_FOR: ALBICE =   /* Albedo over sea ice (for ice fraction =1) */
(PID.TID 0000.0001)                 6.000000000000000E-01
(PID.TID 0000.0001)     ;
(PID.TID 0000.0001) AIM_FOR:  ALBSN =   /* Albedo over snow (for snow depth > SDALB) */
(PID.TID 0000.0001)                 6.000000000000000E-01
(PID.TID 0000.0001)     ;
(PID.TID 0000.0001) AIM_FOR:  SDALB =   /* Snow depth (mm H2O) corresp. maximum albedo */
(PID.TID 0000.0001)                 6.000000000000000E+01
(PID.TID 0000.0001)     ;
(PID.TID 0000.0001) AIM_FOR:  SWCAP =   /* Soil wetness at field capacity (Vol.fract.) */
(PID.TID 0000.0001)                 3.000000000000000E-01
(PID.TID 0000.0001)     ;
(PID.TID 0000.0001) AIM_FOR:  SWWIL =   /* Soil wetness at wilting point  (Vol.fract.) */
(PID.TID 0000.0001)                 1.700000000000000E-01
(PID.TID 0000.0001)     ;
(PID.TID 0000.0001) AIM_FOR: hSnowWetness=   /* snow depth corresp. maximum wetness (m) */
(PID.TID 0000.0001)                 1.000000000000000E-02
(PID.TID 0000.0001)     ;
(PID.TID 0000.0001) AIM_SFL: FWIND0 =   /* ratio of near-sfc wind to lowest-level wind */
(PID.TID 0000.0001)                 6.000000000000000E-01
(PID.TID 0000.0001)     ;
(PID.TID 0000.0001) AIM_SFL: FTEMP0 =  /* weight for near-sfc temp. extrapolation (0-1)*/
(PID.TID 0000.0001)                 1.000000000000000E+00
(PID.TID 0000.0001)     ;
(PID.TID 0000.0001) AIM_SFL:  FHUM0 =  /* weight for near-sfc spec.humid. extrap. (0-1)*/
(PID.TID 0000.0001)                 1.000000000000000E+00
(PID.TID 0000.0001)     ;
(PID.TID 0000.0001) AIM_SFL:    CDL =   /* drag coefficient for momentum over land */
(PID.TID 0000.0001)                 1.800000000000000E-03
(PID.TID 0000.0001)     ;
(PID.TID 0000.0001) AIM_SFL:    CDS =   /* drag coefficient for momentum over sea  */
(PID.TID 0000.0001)                 8.000000000000000E-04
(PID.TID 0000.0001)     ;
(PID.TID 0000.0001) AIM_SFL:    CHL =   /* heat exchange coefficient over land */
(PID.TID 0000.0001)                 1.200000000000000E-03
(PID.TID 0000.0001)     ;
(PID.TID 0000.0001) AIM_SFL:    CHS =   /* heat exchange coefficient over sea  */
(PID.TID 0000.0001)                 8.000000000000000E-04
(PID.TID 0000.0001)     ;
(PID.TID 0000.0001) AIM_SFL:  VGUST =   /* wind speed [m/s] for sub-grid-scale gusts */
(PID.TID 0000.0001)                 5.000000000000000E+00
(PID.TID 0000.0001)     ;
(PID.TID 0000.0001) AIM_SFL:  CTDAY =   /* daily-cycle correction (dTskin/dSSRad) */
(PID.TID 0000.0001)                 1.000000000000000E-02
(PID.TID 0000.0001)     ;
(PID.TID 0000.0001) AIM_SFL: DTHETA =   /* Pot.Temp. gradient for stability correction */
(PID.TID 0000.0001)                 3.000000000000000E+00
(PID.TID 0000.0001)     ;
(PID.TID 0000.0001) AIM_SFL: dTstab =   /* Pot.Temp. increment for stab.funct. derivative */
(PID.TID 0000.0001)                 1.000000000000000E+00
(PID.TID 0000.0001)     ;
(PID.TID 0000.0001) AIM_SFL:  FSTAB =   /* Amplitude of stability correction (fract.) */
(PID.TID 0000.0001)                 6.700000000000000E-01
(PID.TID 0000.0001)     ;
(PID.TID 0000.0001) AIM_SFL:  HDRAG =   /* Height scale for orographic correction */
(PID.TID 0000.0001)                 2.000000000000000E+03
(PID.TID 0000.0001)     ;
(PID.TID 0000.0001) AIM_SFL: FHDRAG =   /* Amplitude of orographic correction (fract.)*/
(PID.TID 0000.0001)                 8.000000000000000E-01
(PID.TID 0000.0001)     ;
(PID.TID 0000.0001) AIM_CNV:  PSMIN =   /* min norm.sfc.P. for occurrence of convect. */
(PID.TID 0000.0001)                 7.000000000000000E-01
(PID.TID 0000.0001)     ;
(PID.TID 0000.0001) AIM_CNV:  TRCNV =   /* time of relaxation [h] towards ref state */
(PID.TID 0000.0001)                 6.000000000000000E+00
(PID.TID 0000.0001)     ;
(PID.TID 0000.0001) AIM_CNV:    QBL =   /* specific hum. threshold in the Bound.layer */
(PID.TID 0000.0001)                 1.500000000000000E+01
(PID.TID 0000.0001)     ;
(PID.TID 0000.0001) AIM_CNV:   RHBL =   /* relative hum. threshold in the Bound.layer */
(PID.TID 0000.0001)                 8.000000000000000E-01
(PID.TID 0000.0001)     ;
(PID.TID 0000.0001) AIM_CNV:   RHIL =   /* rel.hum. threshold (intern) for 2nd mass.Flx*/
(PID.TID 0000.0001)                 7.000000000000000E-01
(PID.TID 0000.0001)     ;
(PID.TID 0000.0001) AIM_CNV: ENTMAX =   /* time of relaxation [h] towards neutral eq. */
(PID.TID 0000.0001)                 5.000000000000000E-01
(PID.TID 0000.0001)     ;
(PID.TID 0000.0001) AIM_CNV:    SMF =   /* ratio 2ndary/primary mass.Flx at cloud-base*/
(PID.TID 0000.0001)                 5.000000000000000E-01
(PID.TID 0000.0001)     ;
(PID.TID 0000.0001) AIM_LSC:  TRLSC =   /* relaxation time [h] for supersat. spec.hum. */
(PID.TID 0000.0001)                 4.000000000000000E+00
(PID.TID 0000.0001)     ;
(PID.TID 0000.0001) AIM_LSC:  RHLSC =   /* Max rel.humidity threshold (at sigma=1) */
(PID.TID 0000.0001)                 9.000000000000000E-01
(PID.TID 0000.0001)     ;
(PID.TID 0000.0001) AIM_LSC: DRHLSC =   /* Vertical range of rel.humidity threshold */
(PID.TID 0000.0001)                 1.000000000000000E-01
(PID.TID 0000.0001)     ;
(PID.TID 0000.0001) AIM_LSC:  QSMAX =   /* Define the maximum latent heat release */
(PID.TID 0000.0001)                 5.000000000000000E+01
(PID.TID 0000.0001)     ;
(PID.TID 0000.0001) AIM_RAD:  RHCL1 =   /*  rel.hum. corresponding to cloud cover = 0 */
(PID.TID 0000.0001)                 4.500000000000000E-01
(PID.TID 0000.0001)     ;
(PID.TID 0000.0001) AIM_RAD:  RHCL2 =   /*  rel.hum. corresponding to cloud cover = 1 */
(PID.TID 0000.0001)                 8.500000000000000E-01
(PID.TID 0000.0001)     ;
(PID.TID 0000.0001) AIM_RAD:  QACL1 =   /* spec.hum. threshold for cloud, upper trop. */
(PID.TID 0000.0001)                 1.000000000000000E-01
(PID.TID 0000.0001)     ;
(PID.TID 0000.0001) AIM_RAD:  QACL2 =   /* spec.hum. threshold for cloud, upper trop. */
(PID.TID 0000.0001)                 1.000000000000000E+00
(PID.TID 0000.0001)     ;
(PID.TID 0000.0001) AIM_RAD:  ALBCL =   /*  cloud albedo (for cloud cover = 1) */
(PID.TID 0000.0001)                 4.000000000000000E-01
(PID.TID 0000.0001)     ;
(PID.TID 0000.0001) AIM_RAD:  EPSSW =   /*  fract. of inc.solar rad. absorbed by ozone */
(PID.TID 0000.0001)                 1.500000000000000E-02
(PID.TID 0000.0001)     ;
(PID.TID 0000.0001) AIM_RAD:  EPSLW =   /*  fract. of sfc LW emitted directly to space */
(PID.TID 0000.0001)                 0.000000000000000E+00
(PID.TID 0000.0001)     ;
(PID.TID 0000.0001) AIM_RAD: EMISFC =   /*  longwave surface emissivity */
(PID.TID 0000.0001)                 9.800000000000000E-01
(PID.TID 0000.0001)     ;
(PID.TID 0000.0001)  AIM_RAD : ShortWave absorptivities (for dp = 10^5 Pa) :
(PID.TID 0000.0001) AIM_RAD: ABSDRY =   /* abs. of dry air (visible band) */
(PID.TID 0000.0001)                 3.300000000000000E-02
(PID.TID 0000.0001)     ;
(PID.TID 0000.0001) AIM_RAD: ABSAER =   /* abs. of aerosols (visible band) */
(PID.TID 0000.0001)                 3.300000000000000E-02
(PID.TID 0000.0001)     ;
(PID.TID 0000.0001) AIM_RAD: ABSWV1 =   /* abs. of water vap. (vis. band)(/dq, 1g/kg) */
(PID.TID 0000.0001)                 2.200000000000000E-02
(PID.TID 0000.0001)     ;
(PID.TID 0000.0001) AIM_RAD: ABSWV2 =   /* abs. of water vap.(near IR bd)(/dq, 1g/kg) */
(PID.TID 0000.0001)                 1.500000000000000E+01
(PID.TID 0000.0001)     ;
(PID.TID 0000.0001) AIM_RAD: ABSCL1 =   /* abs. of clouds (vis.band)(constant term) */
(PID.TID 0000.0001)                 0.000000000000000E+00
(PID.TID 0000.0001)     ;
(PID.TID 0000.0001) AIM_RAD: ABSCL2 =   /* abs. of clouds (vis.band) (/dw, 1g/kg) */
(PID.TID 0000.0001)                 1.000000000000000E-02
(PID.TID 0000.0001)     ;
(PID.TID 0000.0001) AIM_RAD: ABLWIN =   /* abs. of air in "window" band */
(PID.TID 0000.0001)                 7.000000000000000E-01
(PID.TID 0000.0001)     ;
(PID.TID 0000.0001) AIM_RAD: ABLCO2 =   /* abs. of air in CO2 band */
(PID.TID 0000.0001)                 4.000000000000000E+00
(PID.TID 0000.0001)     ;
(PID.TID 0000.0001) AIM_RAD: ABLWV1 =   /* abs. of Water vap. H2O bd-1(weak)(/dq,1g/kg)*/
(PID.TID 0000.0001)                 7.000000000000000E-01
(PID.TID 0000.0001)     ;
(PID.TID 0000.0001) AIM_RAD: ABLWV2 =   /* abs. of W. vap., H2O bd-2(strong)(/dq,1g/kg)*/
(PID.TID 0000.0001)                 5.000000000000000E+01
(PID.TID 0000.0001)     ;
(PID.TID 0000.0001) AIM_RAD: ABLCL1 =   /* abs. of clouds in window band (const term) */
(PID.TID 0000.0001)                 1.200000000000000E+01
(PID.TID 0000.0001)     ;
(PID.TID 0000.0001) AIM_RAD: ABLCL2 =   /* abs. of clouds in window band (/dw, 1g/kg) */
(PID.TID 0000.0001)                 0.000000000000000E+00
(PID.TID 0000.0001)     ;
(PID.TID 0000.0001) AIM_VDI:  TRSHC =   /* relaxation time [h] for shallow convection */
(PID.TID 0000.0001)                 2.400000000000000E+01
(PID.TID 0000.0001)     ;
(PID.TID 0000.0001) AIM_VDI:  TRVDI =   /* relaxation time [h] for moisture diffusion */
(PID.TID 0000.0001)                 4.000000000000000E+01
(PID.TID 0000.0001)     ;
(PID.TID 0000.0001) AIM_VDI:  TRVDS =   /* relaxation time [h] for super-adiab. cond. */
(PID.TID 0000.0001)                 5.000000000000000E+00
(PID.TID 0000.0001)     ;
(PID.TID 0000.0001) AIM_VDI: RHGRAD =   /* max gradient of rel.humidity (d_RH/d_sigma)*/
(PID.TID 0000.0001)                 5.000000000000000E-01
(PID.TID 0000.0001)     ;
(PID.TID 0000.0001) AIM_VDI: RHGRAD =   /* max grad. of dry static Energy(d_DSE/d_phi)*/
(PID.TID 0000.0001)                 5.000000000000000E-01
(PID.TID 0000.0001)     ;
(PID.TID 0000.0001)  MDSREADFIELD: opening global file: landFrc.fullCell.bin
(PID.TID 0000.0001) %MON fCori_max                    =   1.4540029928789E-04
(PID.TID 0000.0001) %MON fCori_min                    =  -1.4540029928789E-04
(PID.TID 0000.0001) %MON fCori_mean                   =  -4.8111471404044E-19
(PID.TID 0000.0001) %MON fCori_sd                     =   1.0284451245737E-04
(PID.TID 0000.0001) %MON fCoriG_max                   =   1.4526891053949E-04
(PID.TID 0000.0001) %MON fCoriG_min                   =  -1.4544410433286E-04
(PID.TID 0000.0001) %MON fCoriG_mean                  =  -2.3086365767120E-06
(PID.TID 0000.0001) %MON fCoriG_sd                    =   1.0363181330709E-04
(PID.TID 0000.0001) %MON fCoriCos_max                 =   1.4540029928789E-04
(PID.TID 0000.0001) %MON fCoriCos_min                 =   3.5693770017430E-06
(PID.TID 0000.0001) %MON fCoriCos_mean                =   9.2601889431870E-05
(PID.TID 0000.0001) %MON fCoriCos_sd                  =   4.4742416298653E-05
(PID.TID 0000.0001) INI_CG2D: CG2D normalisation factor =  2.4541228522912268E-07
(PID.TID 0000.0001) INI_CG2D: cg2dTolerance = 2.780817670310908E-12 (Area=5.0990436378E+14)
(PID.TID 0000.0001) 
(PID.TID 0000.0001) CONFIG_CHECK: OK
(PID.TID 0000.0001) // =======================================================
(PID.TID 0000.0001) // Model configuration
(PID.TID 0000.0001) // =======================================================
(PID.TID 0000.0001) //
(PID.TID 0000.0001) // "Physical" paramters ( PARM01 in namelist )
(PID.TID 0000.0001) //
(PID.TID 0000.0001) buoyancyRelation = ATMOSPHERIC
(PID.TID 0000.0001) fluidIsAir  =  /* fluid major constituent is Air */
(PID.TID 0000.0001)                   T
(PID.TID 0000.0001)     ;
(PID.TID 0000.0001) fluidIsWater=  /* fuild major constituent is Water */
(PID.TID 0000.0001)                   F
(PID.TID 0000.0001)     ;
(PID.TID 0000.0001) usingPCoords =  /* use p (or p*) vertical coordinate */
(PID.TID 0000.0001)                   T
(PID.TID 0000.0001)     ;
(PID.TID 0000.0001) usingZCoords =  /* use z (or z*) vertical coordinate */
(PID.TID 0000.0001)                   F
(PID.TID 0000.0001)     ;
(PID.TID 0000.0001) tRef =   /* Reference temperature profile ( oC or oK ) */
(PID.TID 0000.0001)                 2.810890000000000E+02,      /* K =  1 */
(PID.TID 0000.0001)                 2.893210000000000E+02,      /* K =  2 */
(PID.TID 0000.0001)                 3.071910000000000E+02,      /* K =  3 */
(PID.TID 0000.0001)                 3.313770000000000E+02,      /* K =  4 */
(PID.TID 0000.0001)                 4.324130000000000E+02       /* K =  5 */
(PID.TID 0000.0001)     ;
(PID.TID 0000.0001) sRef =   /* Reference salinity profile ( ppt ) */
(PID.TID 0000.0001)     5 @  0.000000000000000E+00              /* K =  1:  5 */
(PID.TID 0000.0001)     ;
(PID.TID 0000.0001) viscAh =   /* Lateral eddy viscosity ( m^2/s ) */
(PID.TID 0000.0001)                 0.000000000000000E+00
(PID.TID 0000.0001)     ;
(PID.TID 0000.0001) viscAhMax =   /* Maximum lateral eddy viscosity ( m^2/s ) */
(PID.TID 0000.0001)                 1.000000000000000E+21
(PID.TID 0000.0001)     ;
(PID.TID 0000.0001) viscAhGrid =   /* Grid dependent lateral eddy viscosity ( non-dim. ) */
(PID.TID 0000.0001)                 0.000000000000000E+00
(PID.TID 0000.0001)     ;
(PID.TID 0000.0001) useFullLeith =   /* Use Full Form of Leith Viscosity on/off flag*/
(PID.TID 0000.0001)                   F
(PID.TID 0000.0001)     ;
(PID.TID 0000.0001) useStrainTensionVisc =   /* Use StrainTension Form of Viscous Operator on/off flag*/
(PID.TID 0000.0001)                   F
(PID.TID 0000.0001)     ;
(PID.TID 0000.0001) useAreaViscLength =   /* Use area for visc length instead of geom. mean*/
(PID.TID 0000.0001)                   F
(PID.TID 0000.0001)     ;
(PID.TID 0000.0001) viscC2leith = /* Leith harmonic visc. factor (on grad(vort),non-dim.) */
(PID.TID 0000.0001)                 0.000000000000000E+00
(PID.TID 0000.0001)     ;
(PID.TID 0000.0001) viscC2leithD = /* Leith harmonic viscosity factor (on grad(div),non-dim.) */
(PID.TID 0000.0001)                 0.000000000000000E+00
(PID.TID 0000.0001)     ;
(PID.TID 0000.0001) viscC2smag =   /* Smagorinsky harmonic viscosity factor (non-dim.) */
(PID.TID 0000.0001)                 0.000000000000000E+00
(PID.TID 0000.0001)     ;
(PID.TID 0000.0001) viscA4 =   /* Lateral biharmonic viscosity ( m^4/s ) */
(PID.TID 0000.0001)                 0.000000000000000E+00
(PID.TID 0000.0001)     ;
(PID.TID 0000.0001) viscA4Max =   /* Maximum biharmonic viscosity ( m^2/s ) */
(PID.TID 0000.0001)                 1.000000000000000E+21
(PID.TID 0000.0001)     ;
(PID.TID 0000.0001) viscA4Grid =   /* Grid dependent biharmonic viscosity ( non-dim. ) */
(PID.TID 0000.0001)                 0.000000000000000E+00
(PID.TID 0000.0001)     ;
(PID.TID 0000.0001) viscC4leith = /* Leith biharm viscosity factor (on grad(vort), non-dim.) */
(PID.TID 0000.0001)                 0.000000000000000E+00
(PID.TID 0000.0001)     ;
(PID.TID 0000.0001) viscC4leithD = /* Leith biharm viscosity factor (on grad(div), non-dim.) */
(PID.TID 0000.0001)                 0.000000000000000E+00
(PID.TID 0000.0001)     ;
(PID.TID 0000.0001) viscC4Smag = /* Smagorinsky biharm viscosity factor (non-dim) */
(PID.TID 0000.0001)                 0.000000000000000E+00
(PID.TID 0000.0001)     ;
(PID.TID 0000.0001) no_slip_sides =  /* Viscous BCs: No-slip sides */
(PID.TID 0000.0001)                   F
(PID.TID 0000.0001)     ;
(PID.TID 0000.0001) sideDragFactor = /* side-drag scaling factor (non-dim) */
(PID.TID 0000.0001)                 2.000000000000000E+00
(PID.TID 0000.0001)     ;
(PID.TID 0000.0001) viscAr =   /* Vertical eddy viscosity ( units of r^2/s ) */
(PID.TID 0000.0001)                 0.000000000000000E+00
(PID.TID 0000.0001)     ;
(PID.TID 0000.0001) no_slip_bottom =  /* Viscous BCs: No-slip bottom */
(PID.TID 0000.0001)                   F
(PID.TID 0000.0001)     ;
(PID.TID 0000.0001) bottomDragLinear = /* linear bottom-drag coefficient ( 1/s ) */
(PID.TID 0000.0001)                 0.000000000000000E+00
(PID.TID 0000.0001)     ;
(PID.TID 0000.0001) bottomDragQuadratic = /* quadratic bottom-drag coeff. ( 1/m ) */
(PID.TID 0000.0001)                 0.000000000000000E+00
(PID.TID 0000.0001)     ;
(PID.TID 0000.0001) diffKhT =   /* Laplacian diffusion of heat laterally ( m^2/s ) */
(PID.TID 0000.0001)                 0.000000000000000E+00
(PID.TID 0000.0001)     ;
(PID.TID 0000.0001) diffK4T =   /* Bihaarmonic diffusion of heat laterally ( m^4/s ) */
(PID.TID 0000.0001)                 0.000000000000000E+00
(PID.TID 0000.0001)     ;
(PID.TID 0000.0001) diffKhS =   /* Laplacian diffusion of salt laterally ( m^2/s ) */
(PID.TID 0000.0001)                 0.000000000000000E+00
(PID.TID 0000.0001)     ;
(PID.TID 0000.0001) diffK4S =   /* Bihaarmonic diffusion of salt laterally ( m^4/s ) */
(PID.TID 0000.0001)                 0.000000000000000E+00
(PID.TID 0000.0001)     ;
(PID.TID 0000.0001) diffKrNrT = /* vertical profile of vertical diffusion of Temp ( m^2/s )*/
(PID.TID 0000.0001)     5 @  0.000000000000000E+00              /* K =  1:  5 */
(PID.TID 0000.0001)     ;
(PID.TID 0000.0001) diffKrNrS = /* vertical profile of vertical diffusion of Salt ( m^2/s )*/
(PID.TID 0000.0001)     5 @  0.000000000000000E+00              /* K =  1:  5 */
(PID.TID 0000.0001)     ;
(PID.TID 0000.0001) diffKrBL79surf =   /* Surface diffusion for Bryan and Lewis 1979 ( m^2/s ) */
(PID.TID 0000.0001)                 0.000000000000000E+00
(PID.TID 0000.0001)     ;
(PID.TID 0000.0001) diffKrBL79deep =   /* Deep diffusion for Bryan and Lewis 1979 ( m^2/s ) */
(PID.TID 0000.0001)                 0.000000000000000E+00
(PID.TID 0000.0001)     ;
(PID.TID 0000.0001) diffKrBL79scl =   /* Depth scale for Bryan and Lewis 1979 ( m ) */
(PID.TID 0000.0001)                 2.000000000000000E+02
(PID.TID 0000.0001)     ;
(PID.TID 0000.0001) diffKrBL79Ho =   /* Turning depth for Bryan and Lewis 1979 ( m ) */
(PID.TID 0000.0001)                -2.000000000000000E+03
(PID.TID 0000.0001)     ;
(PID.TID 0000.0001)  Equation of State : eosType = IDEALG
(PID.TID 0000.0001) tAlpha =   /* Linear EOS thermal expansion coefficient ( 1/degree ) */
(PID.TID 0000.0001)                 1.234567000000000E+05
(PID.TID 0000.0001)     ;
(PID.TID 0000.0001) sBeta =   /* Linear EOS haline contraction coefficient ( 1/ppt ) */
(PID.TID 0000.0001)                 1.234567000000000E+05
(PID.TID 0000.0001)     ;
(PID.TID 0000.0001) atm_Rd =  /* gas constant for dry air ( J/kg/K ) */
(PID.TID 0000.0001)                 2.868571428571428E+02
(PID.TID 0000.0001)     ;
(PID.TID 0000.0001) atm_Cp =  /* specific heat (Cp) of dry air ( J/kg/K ) */
(PID.TID 0000.0001)                 1.004000000000000E+03
(PID.TID 0000.0001)     ;
(PID.TID 0000.0001) atm_kappa =  /* kappa (=Rd/Cp ) of dry air */
(PID.TID 0000.0001)                 2.857142857142857E-01
(PID.TID 0000.0001)     ;
(PID.TID 0000.0001) atm_Rq = /* water vap. specific vol. anomaly relative to dry air */
(PID.TID 0000.0001)                 0.000000000000000E+00
(PID.TID 0000.0001)     ;
(PID.TID 0000.0001) atm_Po =  /* standard reference pressure ( Pa ) */
(PID.TID 0000.0001)                 1.000000000000000E+05
(PID.TID 0000.0001)     ;
(PID.TID 0000.0001) integr_GeoPot =  /* select how the geopotential is integrated */
(PID.TID 0000.0001)                       2
(PID.TID 0000.0001)     ;
(PID.TID 0000.0001) selectFindRoSurf=  /* select how Surf.Ref. pressure is defined */
(PID.TID 0000.0001)                       0
(PID.TID 0000.0001)     ;
(PID.TID 0000.0001) rhonil =   /* Reference density ( kg/m^3 ) */
(PID.TID 0000.0001)                 1.000000000000000E+00
(PID.TID 0000.0001)     ;
(PID.TID 0000.0001) rhoConst =   /* Reference density ( kg/m^3 ) */
(PID.TID 0000.0001)                 1.000000000000000E+00
(PID.TID 0000.0001)     ;
(PID.TID 0000.0001) rhoConstFresh =   /* Reference density ( kg/m^3 ) */
(PID.TID 0000.0001)                 1.000000000000000E+03
(PID.TID 0000.0001)     ;
(PID.TID 0000.0001) gravity =   /* Gravitational acceleration ( m/s^2 ) */
(PID.TID 0000.0001)                 9.810000000000000E+00
(PID.TID 0000.0001)     ;
(PID.TID 0000.0001) gBaro =   /* Barotropic gravity ( m/s^2 ) */
(PID.TID 0000.0001)                 9.810000000000000E+00
(PID.TID 0000.0001)     ;
(PID.TID 0000.0001) rotationPeriod =   /* Rotation Period ( s ) */
(PID.TID 0000.0001)                 8.640000000000000E+04
(PID.TID 0000.0001)     ;
(PID.TID 0000.0001) omega =   /* Angular velocity ( rad/s ) */
(PID.TID 0000.0001)                 7.272205216643040E-05
(PID.TID 0000.0001)     ;
(PID.TID 0000.0001) f0 =   /* Reference coriolis parameter ( 1/s ) */
(PID.TID 0000.0001)                 1.000000000000000E-04
(PID.TID 0000.0001)     ;
(PID.TID 0000.0001) beta =   /* Beta ( 1/(m.s) ) */
(PID.TID 0000.0001)                 9.999999999999999E-12
(PID.TID 0000.0001)     ;
(PID.TID 0000.0001) freeSurfFac =   /* Implicit free surface factor */
(PID.TID 0000.0001)                 1.000000000000000E+00
(PID.TID 0000.0001)     ;
(PID.TID 0000.0001) implicitFreeSurface =   /* Implicit free surface on/off flag */
(PID.TID 0000.0001)                   T
(PID.TID 0000.0001)     ;
(PID.TID 0000.0001) rigidLid =   /* Rigid lid on/off flag */
(PID.TID 0000.0001)                   F
(PID.TID 0000.0001)     ;
(PID.TID 0000.0001) implicSurfPress =   /* Surface Pressure implicit factor (0-1)*/
(PID.TID 0000.0001)                 1.000000000000000E+00
(PID.TID 0000.0001)     ;
(PID.TID 0000.0001) implicDiv2Dflow =   /* Barot. Flow Div. implicit factor (0-1)*/
(PID.TID 0000.0001)                 1.000000000000000E+00
(PID.TID 0000.0001)     ;
(PID.TID 0000.0001) exactConserv =   /* Exact Volume Conservation on/off flag*/
(PID.TID 0000.0001)                   T
(PID.TID 0000.0001)     ;
(PID.TID 0000.0001) uniformLin_PhiSurf =   /* use uniform Bo_surf on/off flag*/
(PID.TID 0000.0001)                   T
(PID.TID 0000.0001)     ;
(PID.TID 0000.0001) nonlinFreeSurf =   /* Non-linear Free Surf. options (-1,0,1,2,3)*/
(PID.TID 0000.0001)                       0
(PID.TID 0000.0001)     ;
(PID.TID 0000.0001)      -1,0= Off ; 1,2,3= On, 2=+rescale gU,gV, 3=+update cg2d solv.
(PID.TID 0000.0001) hFacInf =   /* lower threshold for hFac (nonlinFreeSurf only)*/
(PID.TID 0000.0001)                 2.000000000000000E-01
(PID.TID 0000.0001)     ;
(PID.TID 0000.0001) hFacSup =   /* upper threshold for hFac (nonlinFreeSurf only)*/
(PID.TID 0000.0001)                 2.000000000000000E+00
(PID.TID 0000.0001)     ;
(PID.TID 0000.0001) select_rStar =   /* r* Coordinate options (not yet implemented)*/
(PID.TID 0000.0001)                       0
(PID.TID 0000.0001)     ;
(PID.TID 0000.0001) useRealFreshWaterFlux =   /* Real Fresh Water Flux on/off flag*/
(PID.TID 0000.0001)                   F
(PID.TID 0000.0001)     ;
(PID.TID 0000.0001) convertFW2Salt = /* convert F.W. Flux to Salt Flux (-1=use local S)(ppt)*/
(PID.TID 0000.0001)                 3.500000000000000E+01
(PID.TID 0000.0001)     ;
(PID.TID 0000.0001) nonHydrostatic =  /* Non-Hydrostatic on/off flag */
(PID.TID 0000.0001)                   F
(PID.TID 0000.0001)     ;
(PID.TID 0000.0001) nh_Am2 = /* Non-Hydrostatic terms scaling factor */
(PID.TID 0000.0001)                 1.000000000000000E+00
(PID.TID 0000.0001)     ;
(PID.TID 0000.0001) momStepping =  /* Momentum equation on/off flag */
(PID.TID 0000.0001)                   T
(PID.TID 0000.0001)     ;
(PID.TID 0000.0001) momAdvection =  /* Momentum advection on/off flag */
(PID.TID 0000.0001)                   T
(PID.TID 0000.0001)     ;
(PID.TID 0000.0001) momViscosity =  /* Momentum viscosity on/off flag */
(PID.TID 0000.0001)                   T
(PID.TID 0000.0001)     ;
(PID.TID 0000.0001) momImplVertAdv =/* Momentum implicit vert. advection on/off*/
(PID.TID 0000.0001)                   F
(PID.TID 0000.0001)     ;
(PID.TID 0000.0001) implicitViscosity = /* Implicit viscosity on/off flag */
(PID.TID 0000.0001)                   F
(PID.TID 0000.0001)     ;
(PID.TID 0000.0001) useCoriolis =  /* Coriolis on/off flag */
(PID.TID 0000.0001)                   T
(PID.TID 0000.0001)     ;
(PID.TID 0000.0001) useCDscheme =  /* CD scheme on/off flag */
(PID.TID 0000.0001)                   F
(PID.TID 0000.0001)     ;
(PID.TID 0000.0001) useJamartWetPoints= /* Coriolis WetPoints method flag */
(PID.TID 0000.0001)                   F
(PID.TID 0000.0001)     ;
(PID.TID 0000.0001) useJamartMomAdv= /* V.I. Non-linear terms Jamart flag */
(PID.TID 0000.0001)                   F
(PID.TID 0000.0001)     ;
(PID.TID 0000.0001) SadournyCoriolis= /* Sadourny Coriolis discr. flag */
(PID.TID 0000.0001)                   F
(PID.TID 0000.0001)     ;
(PID.TID 0000.0001) upwindVorticity= /* Upwind bias vorticity flag */
(PID.TID 0000.0001)                   F
(PID.TID 0000.0001)     ;
(PID.TID 0000.0001) useAbsVorticity= /* Work with f+zeta in Coriolis */
(PID.TID 0000.0001)                   F
(PID.TID 0000.0001)     ;
(PID.TID 0000.0001) highOrderVorticity= /* High order interp. of vort. flag */
(PID.TID 0000.0001)                   F
(PID.TID 0000.0001)     ;
(PID.TID 0000.0001) upwindShear= /* Upwind vertical Shear advection flag */
(PID.TID 0000.0001)                   F
(PID.TID 0000.0001)     ;
(PID.TID 0000.0001) selectKEscheme= /* Kinetic Energy scheme selector */
(PID.TID 0000.0001)                       0
(PID.TID 0000.0001)     ;
(PID.TID 0000.0001) momForcing =  /* Momentum forcing on/off flag */
(PID.TID 0000.0001)                   T
(PID.TID 0000.0001)     ;
(PID.TID 0000.0001) momPressureForcing =  /* Momentum pressure term on/off flag */
(PID.TID 0000.0001)                   T
(PID.TID 0000.0001)     ;
(PID.TID 0000.0001) implicitIntGravWave= /* Implicit Internal Gravity Wave flag */
(PID.TID 0000.0001)                   F
(PID.TID 0000.0001)     ;
(PID.TID 0000.0001) staggerTimeStep =   /* Stagger time stepping on/off flag */
(PID.TID 0000.0001)                   T
(PID.TID 0000.0001)     ;
(PID.TID 0000.0001) multiDimAdvection =   /* enable/disable Multi-Dim Advection */
(PID.TID 0000.0001)                   T
(PID.TID 0000.0001)     ;
(PID.TID 0000.0001) useMultiDimAdvec =   /* Multi-Dim Advection is/is-not used */
(PID.TID 0000.0001)                   F
(PID.TID 0000.0001)     ;
(PID.TID 0000.0001) implicitDiffusion =/* Implicit Diffusion on/off flag */
(PID.TID 0000.0001)                   F
(PID.TID 0000.0001)     ;
(PID.TID 0000.0001) tempStepping =  /* Temperature equation on/off flag */
(PID.TID 0000.0001)                   T
(PID.TID 0000.0001)     ;
(PID.TID 0000.0001) tempAdvection=  /* Temperature advection on/off flag */
(PID.TID 0000.0001)                   T
(PID.TID 0000.0001)     ;
(PID.TID 0000.0001) tempImplVertAdv =/* Temp. implicit vert. advection on/off */
(PID.TID 0000.0001)                   F
(PID.TID 0000.0001)     ;
(PID.TID 0000.0001) tempForcing  =  /* Temperature forcing on/off flag */
(PID.TID 0000.0001)                   T
(PID.TID 0000.0001)     ;
(PID.TID 0000.0001) saltStepping =  /* Salinity equation on/off flag */
(PID.TID 0000.0001)                   T
(PID.TID 0000.0001)     ;
(PID.TID 0000.0001) saltAdvection=  /* Salinity advection on/off flag */
(PID.TID 0000.0001)                   T
(PID.TID 0000.0001)     ;
(PID.TID 0000.0001) saltImplVertAdv =/* Sali. implicit vert. advection on/off */
(PID.TID 0000.0001)                   F
(PID.TID 0000.0001)     ;
(PID.TID 0000.0001) saltForcing  =  /* Salinity forcing on/off flag */
(PID.TID 0000.0001)                   T
(PID.TID 0000.0001)     ;
(PID.TID 0000.0001)  readBinaryPrec = /* Precision used for reading binary files */
(PID.TID 0000.0001)                      64
(PID.TID 0000.0001)     ;
(PID.TID 0000.0001) writeBinaryPrec = /* Precision used for writing binary files */
(PID.TID 0000.0001)                      64
(PID.TID 0000.0001)     ;
(PID.TID 0000.0001)  globalFiles = /* write "global" (=not per tile) files */
(PID.TID 0000.0001)                   F
(PID.TID 0000.0001)     ;
(PID.TID 0000.0001)  useSingleCpuIO = /* only master MPI process does I/O */
(PID.TID 0000.0001)                   F
(PID.TID 0000.0001)     ;
(PID.TID 0000.0001)  debugMode  =  /* Debug Mode on/off flag */
(PID.TID 0000.0001)                   F
(PID.TID 0000.0001)     ;
(PID.TID 0000.0001)    debLevA  =  /* 1rst level of debugging */
(PID.TID 0000.0001)                       1
(PID.TID 0000.0001)     ;
(PID.TID 0000.0001)    debLevB  =  /* 2nd  level of debugging */
(PID.TID 0000.0001)                       2
(PID.TID 0000.0001)     ;
(PID.TID 0000.0001)  debugLevel =  /* select debugging level */
(PID.TID 0000.0001)                       1
(PID.TID 0000.0001)     ;
(PID.TID 0000.0001) //
(PID.TID 0000.0001) // Elliptic solver(s) paramters ( PARM02 in namelist )
(PID.TID 0000.0001) //
(PID.TID 0000.0001) cg2dMaxIters =   /* Upper limit on 2d con. grad iterations  */
(PID.TID 0000.0001)                     200
(PID.TID 0000.0001)     ;
(PID.TID 0000.0001) cg2dChkResFreq =   /* 2d con. grad convergence test frequency */
(PID.TID 0000.0001)                       1
(PID.TID 0000.0001)     ;
(PID.TID 0000.0001) cg2dTargetResidual =   /* 2d con. grad target residual  */
(PID.TID 0000.0001)                 1.000000000000000E-07
(PID.TID 0000.0001)     ;
(PID.TID 0000.0001) cg2dTargetResWunit =   /* CG2d target residual [W units] */
(PID.TID 0000.0001)                 1.000000000000000E-17
(PID.TID 0000.0001)     ;
(PID.TID 0000.0001) cg2dPreCondFreq =   /* Freq. for updating cg2d preconditioner */
(PID.TID 0000.0001)                       1
(PID.TID 0000.0001)     ;
(PID.TID 0000.0001) //
(PID.TID 0000.0001) // Time stepping paramters ( PARM03 in namelist )
(PID.TID 0000.0001) //
(PID.TID 0000.0001) nIter0 =   /* Run starting timestep number  */
(PID.TID 0000.0001)                   69120
(PID.TID 0000.0001)     ;
(PID.TID 0000.0001) nTimeSteps =   /* Number of timesteps */
(PID.TID 0000.0001)                      10
(PID.TID 0000.0001)     ;
(PID.TID 0000.0001) deltatTmom =   /* Momentum equation timestep ( s ) */
(PID.TID 0000.0001)                 4.500000000000000E+02
(PID.TID 0000.0001)     ;
(PID.TID 0000.0001) deltaTfreesurf =   /* FreeSurface equation timestep ( s ) */
(PID.TID 0000.0001)                 4.500000000000000E+02
(PID.TID 0000.0001)     ;
(PID.TID 0000.0001) dTtracerLev =   /* Tracer equation timestep ( s ) */
(PID.TID 0000.0001)     5 @  4.500000000000000E+02              /* K =  1:  5 */
(PID.TID 0000.0001)     ;
(PID.TID 0000.0001) deltatTClock  =   /* Model clock timestep ( s ) */
(PID.TID 0000.0001)                 4.500000000000000E+02
(PID.TID 0000.0001)     ;
(PID.TID 0000.0001) cAdjFreq =   /* Convective adjustment interval ( s ) */
(PID.TID 0000.0001)                 0.000000000000000E+00
(PID.TID 0000.0001)     ;
(PID.TID 0000.0001) forcing_In_AB =   /* put T,S Forcing in Adams-Bash. stepping */
(PID.TID 0000.0001)                   F
(PID.TID 0000.0001)     ;
(PID.TID 0000.0001) doAB_onGtGs = /* apply AB on Tendencies (rather than on T,S)*/
(PID.TID 0000.0001)                   T
(PID.TID 0000.0001)     ;
(PID.TID 0000.0001) abEps =   /* Adams-Bashforth-2 stabilizing weight */
(PID.TID 0000.0001)                 1.000000000000000E-01
(PID.TID 0000.0001)     ;
(PID.TID 0000.0001) baseTime =   /* Model base time ( s ). */
(PID.TID 0000.0001)                 0.000000000000000E+00
(PID.TID 0000.0001)     ;
(PID.TID 0000.0001) startTime =   /* Run start time ( s ). */
(PID.TID 0000.0001)                 3.110400000000000E+07
(PID.TID 0000.0001)     ;
(PID.TID 0000.0001) endTime =   /* Integration ending time ( s ). */
(PID.TID 0000.0001)                 3.110850000000000E+07
(PID.TID 0000.0001)     ;
(PID.TID 0000.0001) pChkPtFreq =   /* Permanent restart/checkpoint file interval ( s ). */
(PID.TID 0000.0001)                 2.592000000000000E+06
(PID.TID 0000.0001)     ;
(PID.TID 0000.0001) chkPtFreq =   /* Rolling restart/checkpoint file interval ( s ). */
(PID.TID 0000.0001)                 0.000000000000000E+00
(PID.TID 0000.0001)     ;
(PID.TID 0000.0001) pickup_write_mdsio =   /* Model IO flag. */
(PID.TID 0000.0001)                   T
(PID.TID 0000.0001)     ;
(PID.TID 0000.0001) pickup_read_mdsio =   /* Model IO flag. */
(PID.TID 0000.0001)                   T
(PID.TID 0000.0001)     ;
(PID.TID 0000.0001) pickup_write_immed =   /* Model IO flag. */
(PID.TID 0000.0001)                   F
(PID.TID 0000.0001)     ;
(PID.TID 0000.0001) dumpFreq =   /* Model state write out interval ( s ). */
(PID.TID 0000.0001)                 2.592000000000000E+06
(PID.TID 0000.0001)     ;
(PID.TID 0000.0001) dumpInitAndLast= /* write out Initial & Last iter. model state */
(PID.TID 0000.0001)                   T
(PID.TID 0000.0001)     ;
(PID.TID 0000.0001) snapshot_mdsio =   /* Model IO flag. */
(PID.TID 0000.0001)                   T
(PID.TID 0000.0001)     ;
(PID.TID 0000.0001) monitorFreq =   /* Monitor output interval ( s ). */
(PID.TID 0000.0001)                 1.000000000000000E+00
(PID.TID 0000.0001)     ;
(PID.TID 0000.0001) monitor_stdio =   /* Model IO flag. */
(PID.TID 0000.0001)                   T
(PID.TID 0000.0001)     ;
(PID.TID 0000.0001) externForcingPeriod =   /* forcing period (s) */
(PID.TID 0000.0001)                 0.000000000000000E+00
(PID.TID 0000.0001)     ;
(PID.TID 0000.0001) externForcingCycle =   /* period of the cyle (s). */
(PID.TID 0000.0001)                 0.000000000000000E+00
(PID.TID 0000.0001)     ;
(PID.TID 0000.0001) tauThetaClimRelax =   /* relaxation time scale (s) */
(PID.TID 0000.0001)                 0.000000000000000E+00
(PID.TID 0000.0001)     ;
(PID.TID 0000.0001) tauSaltClimRelax =   /* relaxation time scale (s) */
(PID.TID 0000.0001)                 0.000000000000000E+00
(PID.TID 0000.0001)     ;
(PID.TID 0000.0001) latBandClimRelax =   /* max. Lat. where relaxation */
(PID.TID 0000.0001)                 1.800000000000000E+02
(PID.TID 0000.0001)     ;
(PID.TID 0000.0001) //
(PID.TID 0000.0001) // Gridding paramters ( PARM04 in namelist )
(PID.TID 0000.0001) //
(PID.TID 0000.0001) usingCartesianGrid =   /* Cartesian coordinates flag ( True / False ) */
(PID.TID 0000.0001)                   F
(PID.TID 0000.0001)     ;
(PID.TID 0000.0001) usingSphericalPolarGrid =   /* Spherical coordinates flag ( True / False ) */
(PID.TID 0000.0001)                   T
(PID.TID 0000.0001)     ;
(PID.TID 0000.0001) usingCylindricalGrid =   /* Spherical coordinates flag ( True / False ) */
(PID.TID 0000.0001)                   F
(PID.TID 0000.0001)     ;
(PID.TID 0000.0001) Ro_SeaLevel =   /* r(1) ( units of r ) */
(PID.TID 0000.0001)                 1.000000000000000E+05
(PID.TID 0000.0001)     ;
(PID.TID 0000.0001) rkSign =   /* index orientation relative to vertical coordinate */
(PID.TID 0000.0001)                -1.000000000000000E+00
(PID.TID 0000.0001)     ;
(PID.TID 0000.0001) horiVertRatio =   /* Ratio on units : Horiz - Vertical */
(PID.TID 0000.0001)                 9.810000000000000E+00
(PID.TID 0000.0001)     ;
(PID.TID 0000.0001) drC =   /* C spacing ( units of r ) */
(PID.TID 0000.0001)                 5.000000000000000E+03,      /* K =  1 */
(PID.TID 0000.0001)                 1.750000000000000E+04,      /* K =  2 */
(PID.TID 0000.0001)                 2.750000000000000E+04,      /* K =  3 */
(PID.TID 0000.0001)                 2.500000000000000E+04,      /* K =  4 */
(PID.TID 0000.0001)                 1.750000000000000E+04       /* K =  5 */
(PID.TID 0000.0001)     ;
(PID.TID 0000.0001) drF =   /* W spacing ( units of r ) */
(PID.TID 0000.0001)                 1.000000000000000E+04,      /* K =  1 */
(PID.TID 0000.0001)                 2.500000000000000E+04,      /* K =  2 */
(PID.TID 0000.0001)                 3.000000000000000E+04,      /* K =  3 */
(PID.TID 0000.0001)                 2.000000000000000E+04,      /* K =  4 */
(PID.TID 0000.0001)                 1.500000000000000E+04       /* K =  5 */
(PID.TID 0000.0001)     ;
(PID.TID 0000.0001) delX =   /* U spacing ( m - cartesian, degrees - spherical ) */
(PID.TID 0000.0001)   128 @  2.812500000000000E+00              /* I =  1:128 */
(PID.TID 0000.0001)     ;
(PID.TID 0000.0001) delY =   /* V spacing ( m - cartesian, degrees - spherical ) */
(PID.TID 0000.0001)    64 @  2.812500000000000E+00              /* J =  1: 64 */
(PID.TID 0000.0001)     ;
(PID.TID 0000.0001) phiMin =    /* South edge (ignored - cartesian, degrees - spherical ) */
(PID.TID 0000.0001)                -9.000000000000000E+01
(PID.TID 0000.0001)     ;
(PID.TID 0000.0001) thetaMin =    /* West edge ( ignored - cartesian, degrees - spherical ) */
(PID.TID 0000.0001)                 0.000000000000000E+00
(PID.TID 0000.0001)     ;
(PID.TID 0000.0001) rSphere =    /* Radius ( ignored - cartesian, m - spherical ) */
(PID.TID 0000.0001)                 6.370000000000000E+06
(PID.TID 0000.0001)     ;
(PID.TID 0000.0001) xcoord =   /* P-point X coord ( m - cartesian, degrees - spherical ) */
(PID.TID 0000.0001)                 1.406250000000000E+00,      /* I =  1 */
(PID.TID 0000.0001)                 4.218750000000000E+00,      /* I =  2 */
(PID.TID 0000.0001)                 7.031250000000000E+00,      /* I =  3 */
(PID.TID 0000.0001)                 9.843750000000000E+00,      /* I =  4 */
(PID.TID 0000.0001)                 1.265625000000000E+01,      /* I =  5 */
(PID.TID 0000.0001)                 1.546875000000000E+01,      /* I =  6 */
(PID.TID 0000.0001)                 1.828125000000000E+01,      /* I =  7 */
(PID.TID 0000.0001)                 2.109375000000000E+01,      /* I =  8 */
(PID.TID 0000.0001)                 2.390625000000000E+01,      /* I =  9 */
(PID.TID 0000.0001)                 2.671875000000000E+01,      /* I = 10 */
(PID.TID 0000.0001)                 2.953125000000000E+01,      /* I = 11 */
(PID.TID 0000.0001)                 3.234375000000000E+01,      /* I = 12 */
(PID.TID 0000.0001)                 3.515625000000000E+01,      /* I = 13 */
(PID.TID 0000.0001)                 3.796875000000000E+01,      /* I = 14 */
(PID.TID 0000.0001)                 4.078125000000000E+01,      /* I = 15 */
(PID.TID 0000.0001)                 4.359375000000000E+01,      /* I = 16 */
(PID.TID 0000.0001)                 4.640625000000000E+01,      /* I = 17 */
(PID.TID 0000.0001)                 4.921875000000000E+01,      /* I = 18 */
(PID.TID 0000.0001)                 5.203125000000000E+01,      /* I = 19 */
(PID.TID 0000.0001)                 5.484375000000000E+01,      /* I = 20 */
(PID.TID 0000.0001)                 5.765625000000000E+01,      /* I = 21 */
(PID.TID 0000.0001)                 6.046875000000000E+01,      /* I = 22 */
(PID.TID 0000.0001)                 6.328125000000000E+01,      /* I = 23 */
(PID.TID 0000.0001)                 6.609375000000000E+01,      /* I = 24 */
(PID.TID 0000.0001)                 6.890625000000000E+01,      /* I = 25 */
(PID.TID 0000.0001)                 7.171875000000000E+01,      /* I = 26 */
(PID.TID 0000.0001)                 7.453125000000000E+01,      /* I = 27 */
(PID.TID 0000.0001)                 7.734375000000000E+01,      /* I = 28 */
(PID.TID 0000.0001)                 8.015625000000000E+01,      /* I = 29 */
(PID.TID 0000.0001)                 8.296875000000000E+01,      /* I = 30 */
(PID.TID 0000.0001)                 8.578125000000000E+01,      /* I = 31 */
(PID.TID 0000.0001)                 8.859375000000000E+01,      /* I = 32 */
(PID.TID 0000.0001)                 9.140625000000000E+01,      /* I = 33 */
(PID.TID 0000.0001)                 9.421875000000000E+01,      /* I = 34 */
(PID.TID 0000.0001)                 9.703125000000000E+01,      /* I = 35 */
(PID.TID 0000.0001)                 9.984375000000000E+01,      /* I = 36 */
(PID.TID 0000.0001)                 1.026562500000000E+02,      /* I = 37 */
(PID.TID 0000.0001)                 1.054687500000000E+02,      /* I = 38 */
(PID.TID 0000.0001)                 1.082812500000000E+02,      /* I = 39 */
(PID.TID 0000.0001)                 1.110937500000000E+02,      /* I = 40 */
(PID.TID 0000.0001)                 1.139062500000000E+02,      /* I = 41 */
(PID.TID 0000.0001)                 1.167187500000000E+02,      /* I = 42 */
(PID.TID 0000.0001)                 1.195312500000000E+02,      /* I = 43 */
(PID.TID 0000.0001)                 1.223437500000000E+02,      /* I = 44 */
(PID.TID 0000.0001)                 1.251562500000000E+02,      /* I = 45 */
(PID.TID 0000.0001)                 1.279687500000000E+02,      /* I = 46 */
(PID.TID 0000.0001)                 1.307812500000000E+02,      /* I = 47 */
(PID.TID 0000.0001)                 1.335937500000000E+02,      /* I = 48 */
(PID.TID 0000.0001)                 1.364062500000000E+02,      /* I = 49 */
(PID.TID 0000.0001)                 1.392187500000000E+02,      /* I = 50 */
(PID.TID 0000.0001)                 1.420312500000000E+02,      /* I = 51 */
(PID.TID 0000.0001)                 1.448437500000000E+02,      /* I = 52 */
(PID.TID 0000.0001)                 1.476562500000000E+02,      /* I = 53 */
(PID.TID 0000.0001)                 1.504687500000000E+02,      /* I = 54 */
(PID.TID 0000.0001)                 1.532812500000000E+02,      /* I = 55 */
(PID.TID 0000.0001)                 1.560937500000000E+02,      /* I = 56 */
(PID.TID 0000.0001)                 1.589062500000000E+02,      /* I = 57 */
(PID.TID 0000.0001)                 1.617187500000000E+02,      /* I = 58 */
(PID.TID 0000.0001)                 1.645312500000000E+02,      /* I = 59 */
(PID.TID 0000.0001)                 1.673437500000000E+02,      /* I = 60 */
(PID.TID 0000.0001)                 1.701562500000000E+02,      /* I = 61 */
(PID.TID 0000.0001)                 1.729687500000000E+02,      /* I = 62 */
(PID.TID 0000.0001)                 1.757812500000000E+02,      /* I = 63 */
(PID.TID 0000.0001)                 1.785937500000000E+02,      /* I = 64 */
(PID.TID 0000.0001)                 1.814062500000000E+02,      /* I = 65 */
(PID.TID 0000.0001)                 1.842187500000000E+02,      /* I = 66 */
(PID.TID 0000.0001)                 1.870312500000000E+02,      /* I = 67 */
(PID.TID 0000.0001)                 1.898437500000000E+02,      /* I = 68 */
(PID.TID 0000.0001)                 1.926562500000000E+02,      /* I = 69 */
(PID.TID 0000.0001)                 1.954687500000000E+02,      /* I = 70 */
(PID.TID 0000.0001)                 1.982812500000000E+02,      /* I = 71 */
(PID.TID 0000.0001)                 2.010937500000000E+02,      /* I = 72 */
(PID.TID 0000.0001)                 2.039062500000000E+02,      /* I = 73 */
(PID.TID 0000.0001)                 2.067187500000000E+02,      /* I = 74 */
(PID.TID 0000.0001)                 2.095312500000000E+02,      /* I = 75 */
(PID.TID 0000.0001)                 2.123437500000000E+02,      /* I = 76 */
(PID.TID 0000.0001)                 2.151562500000000E+02,      /* I = 77 */
(PID.TID 0000.0001)                 2.179687500000000E+02,      /* I = 78 */
(PID.TID 0000.0001)                 2.207812500000000E+02,      /* I = 79 */
(PID.TID 0000.0001)                 2.235937500000000E+02,      /* I = 80 */
(PID.TID 0000.0001)                 2.264062500000000E+02,      /* I = 81 */
(PID.TID 0000.0001)                 2.292187500000000E+02,      /* I = 82 */
(PID.TID 0000.0001)                 2.320312500000000E+02,      /* I = 83 */
(PID.TID 0000.0001)                 2.348437500000000E+02,      /* I = 84 */
(PID.TID 0000.0001)                 2.376562500000000E+02,      /* I = 85 */
(PID.TID 0000.0001)                 2.404687500000000E+02,      /* I = 86 */
(PID.TID 0000.0001)                 2.432812500000000E+02,      /* I = 87 */
(PID.TID 0000.0001)                 2.460937500000000E+02,      /* I = 88 */
(PID.TID 0000.0001)                 2.489062500000000E+02,      /* I = 89 */
(PID.TID 0000.0001)                 2.517187500000000E+02,      /* I = 90 */
(PID.TID 0000.0001)                 2.545312500000000E+02,      /* I = 91 */
(PID.TID 0000.0001)                 2.573437500000000E+02,      /* I = 92 */
(PID.TID 0000.0001)                 2.601562500000000E+02,      /* I = 93 */
(PID.TID 0000.0001)                 2.629687500000000E+02,      /* I = 94 */
(PID.TID 0000.0001)                 2.657812500000000E+02,      /* I = 95 */
(PID.TID 0000.0001)                 2.685937500000000E+02,      /* I = 96 */
(PID.TID 0000.0001)                 2.714062500000000E+02,      /* I = 97 */
(PID.TID 0000.0001)                 2.742187500000000E+02,      /* I = 98 */
(PID.TID 0000.0001)                 2.770312500000000E+02,      /* I = 99 */
(PID.TID 0000.0001)                 2.798437500000000E+02,      /* I =100 */
(PID.TID 0000.0001)                 2.826562500000000E+02,      /* I =101 */
(PID.TID 0000.0001)                 2.854687500000000E+02,      /* I =102 */
(PID.TID 0000.0001)                 2.882812500000000E+02,      /* I =103 */
(PID.TID 0000.0001)                 2.910937500000000E+02,      /* I =104 */
(PID.TID 0000.0001)                 2.939062500000000E+02,      /* I =105 */
(PID.TID 0000.0001)                 2.967187500000000E+02,      /* I =106 */
(PID.TID 0000.0001)                 2.995312500000000E+02,      /* I =107 */
(PID.TID 0000.0001)                 3.023437500000000E+02,      /* I =108 */
(PID.TID 0000.0001)                 3.051562500000000E+02,      /* I =109 */
(PID.TID 0000.0001)                 3.079687500000000E+02,      /* I =110 */
(PID.TID 0000.0001)                 3.107812500000000E+02,      /* I =111 */
(PID.TID 0000.0001)                 3.135937500000000E+02,      /* I =112 */
(PID.TID 0000.0001)                 3.164062500000000E+02,      /* I =113 */
(PID.TID 0000.0001)                 3.192187500000000E+02,      /* I =114 */
(PID.TID 0000.0001)                 3.220312500000000E+02,      /* I =115 */
(PID.TID 0000.0001)                 3.248437500000000E+02,      /* I =116 */
(PID.TID 0000.0001)                 3.276562500000000E+02,      /* I =117 */
(PID.TID 0000.0001)                 3.304687500000000E+02,      /* I =118 */
(PID.TID 0000.0001)                 3.332812500000000E+02,      /* I =119 */
(PID.TID 0000.0001)                 3.360937500000000E+02,      /* I =120 */
(PID.TID 0000.0001)                 3.389062500000000E+02,      /* I =121 */
(PID.TID 0000.0001)                 3.417187500000000E+02,      /* I =122 */
(PID.TID 0000.0001)                 3.445312500000000E+02,      /* I =123 */
(PID.TID 0000.0001)                 3.473437500000000E+02,      /* I =124 */
(PID.TID 0000.0001)                 3.501562500000000E+02,      /* I =125 */
(PID.TID 0000.0001)                 3.529687500000000E+02,      /* I =126 */
(PID.TID 0000.0001)                 3.557812500000000E+02,      /* I =127 */
(PID.TID 0000.0001)                 3.585937500000000E+02       /* I =128 */
(PID.TID 0000.0001)     ;
(PID.TID 0000.0001) ycoord =   /* P-point Y coord ( m - cartesian, degrees - spherical ) */
(PID.TID 0000.0001)                -8.859375000000000E+01,      /* J =  1 */
(PID.TID 0000.0001)                -8.578125000000000E+01,      /* J =  2 */
(PID.TID 0000.0001)                -8.296875000000000E+01,      /* J =  3 */
(PID.TID 0000.0001)                -8.015625000000000E+01,      /* J =  4 */
(PID.TID 0000.0001)                -7.734375000000000E+01,      /* J =  5 */
(PID.TID 0000.0001)                -7.453125000000000E+01,      /* J =  6 */
(PID.TID 0000.0001)                -7.171875000000000E+01,      /* J =  7 */
(PID.TID 0000.0001)                -6.890625000000000E+01,      /* J =  8 */
(PID.TID 0000.0001)                -6.609375000000000E+01,      /* J =  9 */
(PID.TID 0000.0001)                -6.328125000000000E+01,      /* J = 10 */
(PID.TID 0000.0001)                -6.046875000000000E+01,      /* J = 11 */
(PID.TID 0000.0001)                -5.765625000000000E+01,      /* J = 12 */
(PID.TID 0000.0001)                -5.484375000000000E+01,      /* J = 13 */
(PID.TID 0000.0001)                -5.203125000000000E+01,      /* J = 14 */
(PID.TID 0000.0001)                -4.921875000000000E+01,      /* J = 15 */
(PID.TID 0000.0001)                -4.640625000000000E+01,      /* J = 16 */
(PID.TID 0000.0001)                -4.359375000000000E+01,      /* J = 17 */
(PID.TID 0000.0001)                -4.078125000000000E+01,      /* J = 18 */
(PID.TID 0000.0001)                -3.796875000000000E+01,      /* J = 19 */
(PID.TID 0000.0001)                -3.515625000000000E+01,      /* J = 20 */
(PID.TID 0000.0001)                -3.234375000000000E+01,      /* J = 21 */
(PID.TID 0000.0001)                -2.953125000000000E+01,      /* J = 22 */
(PID.TID 0000.0001)                -2.671875000000000E+01,      /* J = 23 */
(PID.TID 0000.0001)                -2.390625000000000E+01,      /* J = 24 */
(PID.TID 0000.0001)                -2.109375000000000E+01,      /* J = 25 */
(PID.TID 0000.0001)                -1.828125000000000E+01,      /* J = 26 */
(PID.TID 0000.0001)                -1.546875000000000E+01,      /* J = 27 */
(PID.TID 0000.0001)                -1.265625000000000E+01,      /* J = 28 */
(PID.TID 0000.0001)                -9.843750000000000E+00,      /* J = 29 */
(PID.TID 0000.0001)                -7.031250000000000E+00,      /* J = 30 */
(PID.TID 0000.0001)                -4.218750000000000E+00,      /* J = 31 */
(PID.TID 0000.0001)                -1.406250000000000E+00,      /* J = 32 */
(PID.TID 0000.0001)                 1.406250000000000E+00,      /* J = 33 */
(PID.TID 0000.0001)                 4.218750000000000E+00,      /* J = 34 */
(PID.TID 0000.0001)                 7.031250000000000E+00,      /* J = 35 */
(PID.TID 0000.0001)                 9.843750000000000E+00,      /* J = 36 */
(PID.TID 0000.0001)                 1.265625000000000E+01,      /* J = 37 */
(PID.TID 0000.0001)                 1.546875000000000E+01,      /* J = 38 */
(PID.TID 0000.0001)                 1.828125000000000E+01,      /* J = 39 */
(PID.TID 0000.0001)                 2.109375000000000E+01,      /* J = 40 */
(PID.TID 0000.0001)                 2.390625000000000E+01,      /* J = 41 */
(PID.TID 0000.0001)                 2.671875000000000E+01,      /* J = 42 */
(PID.TID 0000.0001)                 2.953125000000000E+01,      /* J = 43 */
(PID.TID 0000.0001)                 3.234375000000000E+01,      /* J = 44 */
(PID.TID 0000.0001)                 3.515625000000000E+01,      /* J = 45 */
(PID.TID 0000.0001)                 3.796875000000000E+01,      /* J = 46 */
(PID.TID 0000.0001)                 4.078125000000000E+01,      /* J = 47 */
(PID.TID 0000.0001)                 4.359375000000000E+01,      /* J = 48 */
(PID.TID 0000.0001)                 4.640625000000000E+01,      /* J = 49 */
(PID.TID 0000.0001)                 4.921875000000000E+01,      /* J = 50 */
(PID.TID 0000.0001)                 5.203125000000000E+01,      /* J = 51 */
(PID.TID 0000.0001)                 5.484375000000000E+01,      /* J = 52 */
(PID.TID 0000.0001)                 5.765625000000000E+01,      /* J = 53 */
(PID.TID 0000.0001)                 6.046875000000000E+01,      /* J = 54 */
(PID.TID 0000.0001)                 6.328125000000000E+01,      /* J = 55 */
(PID.TID 0000.0001)                 6.609375000000000E+01,      /* J = 56 */
(PID.TID 0000.0001)                 6.890625000000000E+01,      /* J = 57 */
(PID.TID 0000.0001)                 7.171875000000000E+01,      /* J = 58 */
(PID.TID 0000.0001)                 7.453125000000000E+01,      /* J = 59 */
(PID.TID 0000.0001)                 7.734375000000000E+01,      /* J = 60 */
(PID.TID 0000.0001)                 8.015625000000000E+01,      /* J = 61 */
(PID.TID 0000.0001)                 8.296875000000000E+01,      /* J = 62 */
(PID.TID 0000.0001)                 8.578125000000000E+01,      /* J = 63 */
(PID.TID 0000.0001)                 8.859375000000000E+01       /* J = 64 */
(PID.TID 0000.0001)     ;
(PID.TID 0000.0001) rcoord =   /* P-point R coordinate (  units of r ) */
(PID.TID 0000.0001)                 9.500000000000000E+04,      /* K =  1 */
(PID.TID 0000.0001)                 7.750000000000000E+04,      /* K =  2 */
(PID.TID 0000.0001)                 5.000000000000000E+04,      /* K =  3 */
(PID.TID 0000.0001)                 2.500000000000000E+04,      /* K =  4 */
(PID.TID 0000.0001)                 7.500000000000000E+03       /* K =  5 */
(PID.TID 0000.0001)     ;
(PID.TID 0000.0001) rF =   /* W-Interf. R coordinate (  units of r ) */
(PID.TID 0000.0001)                 1.000000000000000E+05,      /* K =  1 */
(PID.TID 0000.0001)                 9.000000000000000E+04,      /* K =  2 */
(PID.TID 0000.0001)                 6.500000000000000E+04,      /* K =  3 */
(PID.TID 0000.0001)                 3.500000000000000E+04,      /* K =  4 */
(PID.TID 0000.0001)                 1.500000000000000E+04,      /* K =  5 */
(PID.TID 0000.0001)                 0.000000000000000E+00       /* K =  6 */
(PID.TID 0000.0001)     ;
(PID.TID 0000.0001) dxF =  /* dxF(:,1,:,1) ( m - cartesian, degrees - spherical ) */
(PID.TID 0000.0001)   128 @  7.673714381622299E+03              /* I =  1:128 */
(PID.TID 0000.0001)     ;
(PID.TID 0000.0001) dxF =  /* dxF(1,:,1,:) ( m - cartesian, degrees - spherical ) */
(PID.TID 0000.0001)                 7.673714381622299E+03,      /* J =  1 */
(PID.TID 0000.0001)                 2.300265649478360E+04,      /* J =  2 */
(PID.TID 0000.0001)                 3.827618319365421E+04,      /* J =  3 */
(PID.TID 0000.0001)                 5.345749921461356E+04,      /* J =  4 */
(PID.TID 0000.0001)                 6.851003143764105E+04,      /* J =  5 */
(PID.TID 0000.0001)                 8.339751699416524E+04,      /* J =  6 */
(PID.TID 0000.0001)                 9.808409062749070E+04,      /* J =  7 */
(PID.TID 0000.0001)                 1.125343710953429E+05,      /* J =  8 */
(PID.TID 0000.0001)                 1.267135464063795E+05,      /* J =  9 */
(PID.TID 0000.0001)                 1.405874576853274E+05,      /* J = 10 */
(PID.TID 0000.0001)                 1.541226814647045E+05,      /* J = 11 */
(PID.TID 0000.0001)                 1.672866102048804E+05,      /* J = 12 */
(PID.TID 0000.0001)                 1.800475308484964E+05,      /* J = 13 */
(PID.TID 0000.0001)                 1.923747012199971E+05,      /* J = 14 */
(PID.TID 0000.0001)                 2.042384240862251E+05,      /* J = 15 */
(PID.TID 0000.0001)                 2.156101186996563E+05,      /* J = 16 */
(PID.TID 0000.0001)                 2.264623896519241E+05,      /* J = 17 */
(PID.TID 0000.0001)                 2.367690928717577E+05,      /* J = 18 */
(PID.TID 0000.0001)                 2.465053986083400E+05,      /* J = 19 */
(PID.TID 0000.0001)                 2.556478512483520E+05,      /* J = 20 */
(PID.TID 0000.0001)                 2.641744258225996E+05,      /* J = 21 */
(PID.TID 0000.0001)                 2.720645810660936E+05,      /* J = 22 */
(PID.TID 0000.0001)                 2.792993089037565E+05,      /* J = 23 */
(PID.TID 0000.0001)                 2.858611802425402E+05,      /* J = 24 */
(PID.TID 0000.0001)                 2.917343869596373E+05,      /* J = 25 */
(PID.TID 0000.0001)                 2.969047799856344E+05,      /* J = 26 */
(PID.TID 0000.0001)                 3.013599033908587E+05,      /* J = 27 */
(PID.TID 0000.0001)                 3.050890243928043E+05,      /* J = 28 */
(PID.TID 0000.0001)                 3.080831592123453E+05,      /* J = 29 */
(PID.TID 0000.0001)                 3.103350947164461E+05,      /* J = 30 */
(PID.TID 0000.0001)                 3.118394057952309E+05,      /* J = 31 */
(PID.TID 0000.0001)     2 @  3.125924684315491E+05,             /* J = 32: 33 */
(PID.TID 0000.0001)                 3.118394057952309E+05,      /* J = 34 */
(PID.TID 0000.0001)                 3.103350947164461E+05,      /* J = 35 */
(PID.TID 0000.0001)                 3.080831592123453E+05,      /* J = 36 */
(PID.TID 0000.0001)                 3.050890243928043E+05,      /* J = 37 */
(PID.TID 0000.0001)                 3.013599033908587E+05,      /* J = 38 */
(PID.TID 0000.0001)                 2.969047799856344E+05,      /* J = 39 */
(PID.TID 0000.0001)                 2.917343869596373E+05,      /* J = 40 */
(PID.TID 0000.0001)                 2.858611802425402E+05,      /* J = 41 */
(PID.TID 0000.0001)                 2.792993089037565E+05,      /* J = 42 */
(PID.TID 0000.0001)                 2.720645810660936E+05,      /* J = 43 */
(PID.TID 0000.0001)                 2.641744258225996E+05,      /* J = 44 */
(PID.TID 0000.0001)                 2.556478512483520E+05,      /* J = 45 */
(PID.TID 0000.0001)                 2.465053986083400E+05,      /* J = 46 */
(PID.TID 0000.0001)                 2.367690928717577E+05,      /* J = 47 */
(PID.TID 0000.0001)                 2.264623896519241E+05,      /* J = 48 */
(PID.TID 0000.0001)                 2.156101186996563E+05,      /* J = 49 */
(PID.TID 0000.0001)                 2.042384240862251E+05,      /* J = 50 */
(PID.TID 0000.0001)                 1.923747012199971E+05,      /* J = 51 */
(PID.TID 0000.0001)                 1.800475308484964E+05,      /* J = 52 */
(PID.TID 0000.0001)                 1.672866102048804E+05,      /* J = 53 */
(PID.TID 0000.0001)                 1.541226814647045E+05,      /* J = 54 */
(PID.TID 0000.0001)                 1.405874576853274E+05,      /* J = 55 */
(PID.TID 0000.0001)                 1.267135464063795E+05,      /* J = 56 */
(PID.TID 0000.0001)                 1.125343710953429E+05,      /* J = 57 */
(PID.TID 0000.0001)                 9.808409062749070E+04,      /* J = 58 */
(PID.TID 0000.0001)                 8.339751699416524E+04,      /* J = 59 */
(PID.TID 0000.0001)                 6.851003143764105E+04,      /* J = 60 */
(PID.TID 0000.0001)                 5.345749921461356E+04,      /* J = 61 */
(PID.TID 0000.0001)                 3.827618319365421E+04,      /* J = 62 */
(PID.TID 0000.0001)                 2.300265649478360E+04,      /* J = 63 */
(PID.TID 0000.0001)                 7.673714381622299E+03       /* J = 64 */
(PID.TID 0000.0001)     ;
(PID.TID 0000.0001) dyF =  /* dyF(:,1,:,1) ( m - cartesian, degrees - spherical ) */
(PID.TID 0000.0001)   128 @  3.126866438026091E+05              /* I =  1:128 */
(PID.TID 0000.0001)     ;
(PID.TID 0000.0001) dyF =  /* dyF(1,:,1,:) ( m - cartesian, degrees - spherical ) */
(PID.TID 0000.0001)    64 @  3.126866438026091E+05              /* J =  1: 64 */
(PID.TID 0000.0001)     ;
(PID.TID 0000.0001) dxG =  /* dxG(:,1,:,1) ( m - cartesian, degrees - spherical ) */
(PID.TID 0000.0001)   128 @  0.000000000000000E+00              /* I =  1:128 */
(PID.TID 0000.0001)     ;
(PID.TID 0000.0001) dxG =  /* dxG(1,:,1,:) ( m - cartesian, degrees - spherical ) */
(PID.TID 0000.0001)                 0.000000000000000E+00,      /* J =  1 */
(PID.TID 0000.0001)                 1.534280640463982E+04,      /* J =  2 */
(PID.TID 0000.0001)                 3.064865064477965E+04,      /* J =  3 */
(PID.TID 0000.0001)                 4.588065960101153E+04,      /* J =  4 */
(PID.TID 0000.0001)                 6.100213802959342E+04,      /* J =  5 */
(PID.TID 0000.0001)                 7.597665696450579E+04,      /* J =  6 */
(PID.TID 0000.0001)                 9.076814147802141E+04,      /* J =  7 */
(PID.TID 0000.0001)                 1.053409575883663E+05,      /* J =  8 */
(PID.TID 0000.0001)                 1.196599981051027E+05,      /* J =  9 */
(PID.TID 0000.0001)                 1.336907672054259E+05,      /* J = 10 */
(PID.TID 0000.0001)                 1.473994635376230E+05,      /* J = 11 */
(PID.TID 0000.0001)                 1.607530616514898E+05,      /* J = 12 */
(PID.TID 0000.0001)                 1.737193915595329E+05,      /* J = 13 */
(PID.TID 0000.0001)                 1.862672162372875E+05,      /* J = 14 */
(PID.TID 0000.0001)                 1.983663068760452E+05,      /* J = 15 */
(PID.TID 0000.0001)                 2.099875157067021E+05,      /* J = 16 */
(PID.TID 0000.0001)                 2.211028462192875E+05,      /* J = 17 */
(PID.TID 0000.0001)                 2.316855206090085E+05,      /* J = 18 */
(PID.TID 0000.0001)                 2.417100442863276E+05,      /* J = 19 */
(PID.TID 0000.0001)                 2.511522672956614E+05,      /* J = 20 */
(PID.TID 0000.0001)                 2.599894424947394E+05,      /* J = 21 */
(PID.TID 0000.0001)                 2.682002803544621E+05,      /* J = 22 */
(PID.TID 0000.0001)                 2.757650002472408E+05,      /* J = 23 */
(PID.TID 0000.0001)                 2.826653781002625E+05,      /* J = 24 */
(PID.TID 0000.0001)                 2.888847902988777E+05,      /* J = 25 */
(PID.TID 0000.0001)                 2.944082537343438E+05,      /* J = 26 */
(PID.TID 0000.0001)                 2.992224618994463E+05,      /* J = 27 */
(PID.TID 0000.0001)                 3.033158169450409E+05,      /* J = 28 */
(PID.TID 0000.0001)                 3.066784576202870E+05,      /* J = 29 */
(PID.TID 0000.0001)                 3.093022830292655E+05,      /* J = 30 */
(PID.TID 0000.0001)                 3.111809721467461E+05,      /* J = 31 */
(PID.TID 0000.0001)                 3.123099990460912E+05,      /* J = 32 */
(PID.TID 0000.0001)                 3.126866438026091E+05,      /* J = 33 */
(PID.TID 0000.0001)                 3.123099990460912E+05,      /* J = 34 */
(PID.TID 0000.0001)                 3.111809721467461E+05,      /* J = 35 */
(PID.TID 0000.0001)                 3.093022830292655E+05,      /* J = 36 */
(PID.TID 0000.0001)                 3.066784576202870E+05,      /* J = 37 */
(PID.TID 0000.0001)                 3.033158169450409E+05,      /* J = 38 */
(PID.TID 0000.0001)                 2.992224618994463E+05,      /* J = 39 */
(PID.TID 0000.0001)                 2.944082537343438E+05,      /* J = 40 */
(PID.TID 0000.0001)                 2.888847902988777E+05,      /* J = 41 */
(PID.TID 0000.0001)                 2.826653781002625E+05,      /* J = 42 */
(PID.TID 0000.0001)                 2.757650002472408E+05,      /* J = 43 */
(PID.TID 0000.0001)                 2.682002803544621E+05,      /* J = 44 */
(PID.TID 0000.0001)                 2.599894424947394E+05,      /* J = 45 */
(PID.TID 0000.0001)                 2.511522672956614E+05,      /* J = 46 */
(PID.TID 0000.0001)                 2.417100442863276E+05,      /* J = 47 */
(PID.TID 0000.0001)                 2.316855206090085E+05,      /* J = 48 */
(PID.TID 0000.0001)                 2.211028462192875E+05,      /* J = 49 */
(PID.TID 0000.0001)                 2.099875157067021E+05,      /* J = 50 */
(PID.TID 0000.0001)                 1.983663068760452E+05,      /* J = 51 */
(PID.TID 0000.0001)                 1.862672162372875E+05,      /* J = 52 */
(PID.TID 0000.0001)                 1.737193915595329E+05,      /* J = 53 */
(PID.TID 0000.0001)                 1.607530616514898E+05,      /* J = 54 */
(PID.TID 0000.0001)                 1.473994635376230E+05,      /* J = 55 */
(PID.TID 0000.0001)                 1.336907672054259E+05,      /* J = 56 */
(PID.TID 0000.0001)                 1.196599981051027E+05,      /* J = 57 */
(PID.TID 0000.0001)                 1.053409575883663E+05,      /* J = 58 */
(PID.TID 0000.0001)                 9.076814147802141E+04,      /* J = 59 */
(PID.TID 0000.0001)                 7.597665696450579E+04,      /* J = 60 */
(PID.TID 0000.0001)                 6.100213802959342E+04,      /* J = 61 */
(PID.TID 0000.0001)                 4.588065960101153E+04,      /* J = 62 */
(PID.TID 0000.0001)                 3.064865064477965E+04,      /* J = 63 */
(PID.TID 0000.0001)                 1.534280640463982E+04       /* J = 64 */
(PID.TID 0000.0001)     ;
(PID.TID 0000.0001) dyG =  /* dyG(:,1,:,1) ( m - cartesian, degrees - spherical ) */
(PID.TID 0000.0001)   128 @  3.126866438026091E+05              /* I =  1:128 */
(PID.TID 0000.0001)     ;
(PID.TID 0000.0001) dyG =  /* dyG(1,:,1,:) ( m - cartesian, degrees - spherical ) */
(PID.TID 0000.0001)    64 @  3.126866438026091E+05              /* J =  1: 64 */
(PID.TID 0000.0001)     ;
(PID.TID 0000.0001) dxC =  /* dxC(:,1,:,1) ( m - cartesian, degrees - spherical ) */
(PID.TID 0000.0001)   128 @  7.673714381622299E+03              /* I =  1:128 */
(PID.TID 0000.0001)     ;
(PID.TID 0000.0001) dxC =  /* dxC(1,:,1,:) ( m - cartesian, degrees - spherical ) */
(PID.TID 0000.0001)                 7.673714381622299E+03,      /* J =  1 */
(PID.TID 0000.0001)                 2.300265649478360E+04,      /* J =  2 */
(PID.TID 0000.0001)                 3.827618319365421E+04,      /* J =  3 */
(PID.TID 0000.0001)                 5.345749921461356E+04,      /* J =  4 */
(PID.TID 0000.0001)                 6.851003143764105E+04,      /* J =  5 */
(PID.TID 0000.0001)                 8.339751699416524E+04,      /* J =  6 */
(PID.TID 0000.0001)                 9.808409062749070E+04,      /* J =  7 */
(PID.TID 0000.0001)                 1.125343710953429E+05,      /* J =  8 */
(PID.TID 0000.0001)                 1.267135464063795E+05,      /* J =  9 */
(PID.TID 0000.0001)                 1.405874576853274E+05,      /* J = 10 */
(PID.TID 0000.0001)                 1.541226814647045E+05,      /* J = 11 */
(PID.TID 0000.0001)                 1.672866102048804E+05,      /* J = 12 */
(PID.TID 0000.0001)                 1.800475308484964E+05,      /* J = 13 */
(PID.TID 0000.0001)                 1.923747012199971E+05,      /* J = 14 */
(PID.TID 0000.0001)                 2.042384240862251E+05,      /* J = 15 */
(PID.TID 0000.0001)                 2.156101186996563E+05,      /* J = 16 */
(PID.TID 0000.0001)                 2.264623896519241E+05,      /* J = 17 */
(PID.TID 0000.0001)                 2.367690928717577E+05,      /* J = 18 */
(PID.TID 0000.0001)                 2.465053986083400E+05,      /* J = 19 */
(PID.TID 0000.0001)                 2.556478512483520E+05,      /* J = 20 */
(PID.TID 0000.0001)                 2.641744258225996E+05,      /* J = 21 */
(PID.TID 0000.0001)                 2.720645810660936E+05,      /* J = 22 */
(PID.TID 0000.0001)                 2.792993089037565E+05,      /* J = 23 */
(PID.TID 0000.0001)                 2.858611802425402E+05,      /* J = 24 */
(PID.TID 0000.0001)                 2.917343869596373E+05,      /* J = 25 */
(PID.TID 0000.0001)                 2.969047799856344E+05,      /* J = 26 */
(PID.TID 0000.0001)                 3.013599033908587E+05,      /* J = 27 */
(PID.TID 0000.0001)                 3.050890243928043E+05,      /* J = 28 */
(PID.TID 0000.0001)                 3.080831592123453E+05,      /* J = 29 */
(PID.TID 0000.0001)                 3.103350947164461E+05,      /* J = 30 */
(PID.TID 0000.0001)                 3.118394057952309E+05,      /* J = 31 */
(PID.TID 0000.0001)     2 @  3.125924684315491E+05,             /* J = 32: 33 */
(PID.TID 0000.0001)                 3.118394057952309E+05,      /* J = 34 */
(PID.TID 0000.0001)                 3.103350947164461E+05,      /* J = 35 */
(PID.TID 0000.0001)                 3.080831592123453E+05,      /* J = 36 */
(PID.TID 0000.0001)                 3.050890243928043E+05,      /* J = 37 */
(PID.TID 0000.0001)                 3.013599033908587E+05,      /* J = 38 */
(PID.TID 0000.0001)                 2.969047799856344E+05,      /* J = 39 */
(PID.TID 0000.0001)                 2.917343869596373E+05,      /* J = 40 */
(PID.TID 0000.0001)                 2.858611802425402E+05,      /* J = 41 */
(PID.TID 0000.0001)                 2.792993089037565E+05,      /* J = 42 */
(PID.TID 0000.0001)                 2.720645810660936E+05,      /* J = 43 */
(PID.TID 0000.0001)                 2.641744258225996E+05,      /* J = 44 */
(PID.TID 0000.0001)                 2.556478512483520E+05,      /* J = 45 */
(PID.TID 0000.0001)                 2.465053986083400E+05,      /* J = 46 */
(PID.TID 0000.0001)                 2.367690928717577E+05,      /* J = 47 */
(PID.TID 0000.0001)                 2.264623896519241E+05,      /* J = 48 */
(PID.TID 0000.0001)                 2.156101186996563E+05,      /* J = 49 */
(PID.TID 0000.0001)                 2.042384240862251E+05,      /* J = 50 */
(PID.TID 0000.0001)                 1.923747012199971E+05,      /* J = 51 */
(PID.TID 0000.0001)                 1.800475308484964E+05,      /* J = 52 */
(PID.TID 0000.0001)                 1.672866102048804E+05,      /* J = 53 */
(PID.TID 0000.0001)                 1.541226814647045E+05,      /* J = 54 */
(PID.TID 0000.0001)                 1.405874576853274E+05,      /* J = 55 */
(PID.TID 0000.0001)                 1.267135464063795E+05,      /* J = 56 */
(PID.TID 0000.0001)                 1.125343710953429E+05,      /* J = 57 */
(PID.TID 0000.0001)                 9.808409062749070E+04,      /* J = 58 */
(PID.TID 0000.0001)                 8.339751699416524E+04,      /* J = 59 */
(PID.TID 0000.0001)                 6.851003143764105E+04,      /* J = 60 */
(PID.TID 0000.0001)                 5.345749921461356E+04,      /* J = 61 */
(PID.TID 0000.0001)                 3.827618319365421E+04,      /* J = 62 */
(PID.TID 0000.0001)                 2.300265649478360E+04,      /* J = 63 */
(PID.TID 0000.0001)                 7.673714381622299E+03       /* J = 64 */
(PID.TID 0000.0001)     ;
(PID.TID 0000.0001) dyC =  /* dyC(:,1,:,1) ( m - cartesian, degrees - spherical ) */
(PID.TID 0000.0001)   128 @  3.126866438026091E+05              /* I =  1:128 */
(PID.TID 0000.0001)     ;
(PID.TID 0000.0001) dyC =  /* dyC(1,:,1,:) ( m - cartesian, degrees - spherical ) */
(PID.TID 0000.0001)    64 @  3.126866438026091E+05              /* J =  1: 64 */
(PID.TID 0000.0001)     ;
(PID.TID 0000.0001) dxV =  /* dxV(:,1,:,1) ( m - cartesian, degrees - spherical ) */
(PID.TID 0000.0001)   128 @  0.000000000000000E+00              /* I =  1:128 */
(PID.TID 0000.0001)     ;
(PID.TID 0000.0001) dxV =  /* dxV(1,:,1,:) ( m - cartesian, degrees - spherical ) */
(PID.TID 0000.0001)                 0.000000000000000E+00,      /* J =  1 */
(PID.TID 0000.0001)                 1.534280640463982E+04,      /* J =  2 */
(PID.TID 0000.0001)                 3.064865064477965E+04,      /* J =  3 */
(PID.TID 0000.0001)                 4.588065960101153E+04,      /* J =  4 */
(PID.TID 0000.0001)                 6.100213802959342E+04,      /* J =  5 */
(PID.TID 0000.0001)                 7.597665696450579E+04,      /* J =  6 */
(PID.TID 0000.0001)                 9.076814147802141E+04,      /* J =  7 */
(PID.TID 0000.0001)                 1.053409575883663E+05,      /* J =  8 */
(PID.TID 0000.0001)                 1.196599981051027E+05,      /* J =  9 */
(PID.TID 0000.0001)                 1.336907672054259E+05,      /* J = 10 */
(PID.TID 0000.0001)                 1.473994635376230E+05,      /* J = 11 */
(PID.TID 0000.0001)                 1.607530616514898E+05,      /* J = 12 */
(PID.TID 0000.0001)                 1.737193915595329E+05,      /* J = 13 */
(PID.TID 0000.0001)                 1.862672162372875E+05,      /* J = 14 */
(PID.TID 0000.0001)                 1.983663068760452E+05,      /* J = 15 */
(PID.TID 0000.0001)                 2.099875157067021E+05,      /* J = 16 */
(PID.TID 0000.0001)                 2.211028462192875E+05,      /* J = 17 */
(PID.TID 0000.0001)                 2.316855206090085E+05,      /* J = 18 */
(PID.TID 0000.0001)                 2.417100442863276E+05,      /* J = 19 */
(PID.TID 0000.0001)                 2.511522672956614E+05,      /* J = 20 */
(PID.TID 0000.0001)                 2.599894424947394E+05,      /* J = 21 */
(PID.TID 0000.0001)                 2.682002803544621E+05,      /* J = 22 */
(PID.TID 0000.0001)                 2.757650002472408E+05,      /* J = 23 */
(PID.TID 0000.0001)                 2.826653781002625E+05,      /* J = 24 */
(PID.TID 0000.0001)                 2.888847902988777E+05,      /* J = 25 */
(PID.TID 0000.0001)                 2.944082537343438E+05,      /* J = 26 */
(PID.TID 0000.0001)                 2.992224618994463E+05,      /* J = 27 */
(PID.TID 0000.0001)                 3.033158169450409E+05,      /* J = 28 */
(PID.TID 0000.0001)                 3.066784576202870E+05,      /* J = 29 */
(PID.TID 0000.0001)                 3.093022830292655E+05,      /* J = 30 */
(PID.TID 0000.0001)                 3.111809721467461E+05,      /* J = 31 */
(PID.TID 0000.0001)                 3.123099990460912E+05,      /* J = 32 */
(PID.TID 0000.0001)                 3.126866438026091E+05,      /* J = 33 */
(PID.TID 0000.0001)                 3.123099990460912E+05,      /* J = 34 */
(PID.TID 0000.0001)                 3.111809721467461E+05,      /* J = 35 */
(PID.TID 0000.0001)                 3.093022830292655E+05,      /* J = 36 */
(PID.TID 0000.0001)                 3.066784576202870E+05,      /* J = 37 */
(PID.TID 0000.0001)                 3.033158169450409E+05,      /* J = 38 */
(PID.TID 0000.0001)                 2.992224618994463E+05,      /* J = 39 */
(PID.TID 0000.0001)                 2.944082537343438E+05,      /* J = 40 */
(PID.TID 0000.0001)                 2.888847902988777E+05,      /* J = 41 */
(PID.TID 0000.0001)                 2.826653781002625E+05,      /* J = 42 */
(PID.TID 0000.0001)                 2.757650002472408E+05,      /* J = 43 */
(PID.TID 0000.0001)                 2.682002803544621E+05,      /* J = 44 */
(PID.TID 0000.0001)                 2.599894424947394E+05,      /* J = 45 */
(PID.TID 0000.0001)                 2.511522672956614E+05,      /* J = 46 */
(PID.TID 0000.0001)                 2.417100442863276E+05,      /* J = 47 */
(PID.TID 0000.0001)                 2.316855206090085E+05,      /* J = 48 */
(PID.TID 0000.0001)                 2.211028462192875E+05,      /* J = 49 */
(PID.TID 0000.0001)                 2.099875157067021E+05,      /* J = 50 */
(PID.TID 0000.0001)                 1.983663068760452E+05,      /* J = 51 */
(PID.TID 0000.0001)                 1.862672162372875E+05,      /* J = 52 */
(PID.TID 0000.0001)                 1.737193915595329E+05,      /* J = 53 */
(PID.TID 0000.0001)                 1.607530616514898E+05,      /* J = 54 */
(PID.TID 0000.0001)                 1.473994635376230E+05,      /* J = 55 */
(PID.TID 0000.0001)                 1.336907672054259E+05,      /* J = 56 */
(PID.TID 0000.0001)                 1.196599981051027E+05,      /* J = 57 */
(PID.TID 0000.0001)                 1.053409575883663E+05,      /* J = 58 */
(PID.TID 0000.0001)                 9.076814147802141E+04,      /* J = 59 */
(PID.TID 0000.0001)                 7.597665696450579E+04,      /* J = 60 */
(PID.TID 0000.0001)                 6.100213802959342E+04,      /* J = 61 */
(PID.TID 0000.0001)                 4.588065960101153E+04,      /* J = 62 */
(PID.TID 0000.0001)                 3.064865064477965E+04,      /* J = 63 */
(PID.TID 0000.0001)                 1.534280640463982E+04       /* J = 64 */
(PID.TID 0000.0001)     ;
(PID.TID 0000.0001) dyU =  /* dyU(:,1,:,1) ( m - cartesian, degrees - spherical ) */
(PID.TID 0000.0001)   128 @  3.126866438026091E+05              /* I =  1:128 */
(PID.TID 0000.0001)     ;
(PID.TID 0000.0001) dyU =  /* dyU(1,:,1,:) ( m - cartesian, degrees - spherical ) */
(PID.TID 0000.0001)    64 @  3.126866438026091E+05              /* J =  1: 64 */
(PID.TID 0000.0001)     ;
(PID.TID 0000.0001) rA =  /* rA(:,1,:,1) ( m - cartesian, degrees - spherical ) */
(PID.TID 0000.0001)   128 @  2.399227099019018E+09              /* I =  1:128 */
(PID.TID 0000.0001)     ;
(PID.TID 0000.0001) rA =  /* rA(1,:,1,:) ( m - cartesian, degrees - spherical ) */
(PID.TID 0000.0001)                 2.399227099019018E+09,      /* J =  1 */
(PID.TID 0000.0001)                 7.191901348828056E+09,      /* J =  2 */
(PID.TID 0000.0001)                 1.196724967835171E+10,      /* J =  3 */
(PID.TID 0000.0001)                 1.671376785519299E+10,      /* J =  4 */
(PID.TID 0000.0001)                 2.142002110131771E+10,      /* J =  5 */
(PID.TID 0000.0001)                 2.607467164043704E+10,      /* J =  6 */
(PID.TID 0000.0001)                 3.066650601170349E+10,      /* J =  7 */
(PID.TID 0000.0001)                 3.518446208391881E+10,      /* J =  8 */
(PID.TID 0000.0001)                 3.961765570517892E+10,      /* J =  9 */
(PID.TID 0000.0001)                 4.395540692374860E+10,      /* J = 10 */
(PID.TID 0000.0001)                 4.818726571700000E+10,      /* J = 11 */
(PID.TID 0000.0001)                 5.230303716643333E+10,      /* J = 12 */
(PID.TID 0000.0001)                 5.629280601812741E+10,      /* J = 13 */
(PID.TID 0000.0001)                 6.014696056945659E+10,      /* J = 14 */
(PID.TID 0000.0001)                 6.385621582452237E+10,      /* J = 15 */
(PID.TID 0000.0001)                 6.741163586252303E+10,      /* J = 16 */
(PID.TID 0000.0001)                 7.080465536516846E+10,      /* J = 17 */
(PID.TID 0000.0001)                 7.402710025128452E+10,      /* J = 18 */
(PID.TID 0000.0001)                 7.707120736888658E+10,      /* J = 19 */
(PID.TID 0000.0001)                 7.992964319729683E+10,      /* J = 20 */
(PID.TID 0000.0001)                 8.259552151423444E+10,      /* J = 21 */
(PID.TID 0000.0001)                 8.506241998533159E+10,      /* J = 22 */
(PID.TID 0000.0001)                 8.732439563609566E+10,      /* J = 23 */
(PID.TID 0000.0001)                 8.937599916905872E+10,      /* J = 24 */
(PID.TID 0000.0001)                 9.121228809161066E+10,      /* J = 25 */
(PID.TID 0000.0001)                 9.282883862289705E+10,      /* J = 26 */
(PID.TID 0000.0001)                 9.422175635109474E+10,      /* J = 27 */
(PID.TID 0000.0001)                 9.538768561539165E+10,      /* J = 28 */
(PID.TID 0000.0001)                 9.632381759006650E+10,      /* J = 29 */
(PID.TID 0000.0001)                 9.702789705119698E+10,      /* J = 30 */
(PID.TID 0000.0001)                 9.749822780969106E+10,      /* J = 31 */
(PID.TID 0000.0001)     2 @  9.773367679755542E+10,             /* J = 32: 33 */
(PID.TID 0000.0001)                 9.749822780969106E+10,      /* J = 34 */
(PID.TID 0000.0001)                 9.702789705119698E+10,      /* J = 35 */
(PID.TID 0000.0001)                 9.632381759006650E+10,      /* J = 36 */
(PID.TID 0000.0001)                 9.538768561539165E+10,      /* J = 37 */
(PID.TID 0000.0001)                 9.422175635109474E+10,      /* J = 38 */
(PID.TID 0000.0001)                 9.282883862289705E+10,      /* J = 39 */
(PID.TID 0000.0001)                 9.121228809161066E+10,      /* J = 40 */
(PID.TID 0000.0001)                 8.937599916905872E+10,      /* J = 41 */
(PID.TID 0000.0001)                 8.732439563609566E+10,      /* J = 42 */
(PID.TID 0000.0001)                 8.506241998533159E+10,      /* J = 43 */
(PID.TID 0000.0001)                 8.259552151423444E+10,      /* J = 44 */
(PID.TID 0000.0001)                 7.992964319729683E+10,      /* J = 45 */
(PID.TID 0000.0001)                 7.707120736888658E+10,      /* J = 46 */
(PID.TID 0000.0001)                 7.402710025128452E+10,      /* J = 47 */
(PID.TID 0000.0001)                 7.080465536516846E+10,      /* J = 48 */
(PID.TID 0000.0001)                 6.741163586252303E+10,      /* J = 49 */
(PID.TID 0000.0001)                 6.385621582452237E+10,      /* J = 50 */
(PID.TID 0000.0001)                 6.014696056945659E+10,      /* J = 51 */
(PID.TID 0000.0001)                 5.629280601812741E+10,      /* J = 52 */
(PID.TID 0000.0001)                 5.230303716643333E+10,      /* J = 53 */
(PID.TID 0000.0001)                 4.818726571700000E+10,      /* J = 54 */
(PID.TID 0000.0001)                 4.395540692374860E+10,      /* J = 55 */
(PID.TID 0000.0001)                 3.961765570517892E+10,      /* J = 56 */
(PID.TID 0000.0001)                 3.518446208391881E+10,      /* J = 57 */
(PID.TID 0000.0001)                 3.066650601170349E+10,      /* J = 58 */
(PID.TID 0000.0001)                 2.607467164043704E+10,      /* J = 59 */
(PID.TID 0000.0001)                 2.142002110131771E+10,      /* J = 60 */
(PID.TID 0000.0001)                 1.671376785519299E+10,      /* J = 61 */
(PID.TID 0000.0001)                 1.196724967835171E+10,      /* J = 62 */
(PID.TID 0000.0001)                 7.191901348828056E+09,      /* J = 63 */
(PID.TID 0000.0001)                 2.399227099019018E+09       /* J = 64 */
(PID.TID 0000.0001)     ;
(PID.TID 0000.0001) rAw =  /* rAw(:,1,:,1) ( m - cartesian, degrees - spherical ) */
(PID.TID 0000.0001)   128 @  2.399227099019018E+09              /* I =  1:128 */
(PID.TID 0000.0001)     ;
(PID.TID 0000.0001) rAw =  /* rAw(1,:,1,:) ( m - cartesian, degrees - spherical ) */
(PID.TID 0000.0001)                 2.399227099019018E+09,      /* J =  1 */
(PID.TID 0000.0001)                 7.191901348828056E+09,      /* J =  2 */
(PID.TID 0000.0001)                 1.196724967835171E+10,      /* J =  3 */
(PID.TID 0000.0001)                 1.671376785519299E+10,      /* J =  4 */
(PID.TID 0000.0001)                 2.142002110131771E+10,      /* J =  5 */
(PID.TID 0000.0001)                 2.607467164043704E+10,      /* J =  6 */
(PID.TID 0000.0001)                 3.066650601170349E+10,      /* J =  7 */
(PID.TID 0000.0001)                 3.518446208391881E+10,      /* J =  8 */
(PID.TID 0000.0001)                 3.961765570517892E+10,      /* J =  9 */
(PID.TID 0000.0001)                 4.395540692374860E+10,      /* J = 10 */
(PID.TID 0000.0001)                 4.818726571700000E+10,      /* J = 11 */
(PID.TID 0000.0001)                 5.230303716643333E+10,      /* J = 12 */
(PID.TID 0000.0001)                 5.629280601812741E+10,      /* J = 13 */
(PID.TID 0000.0001)                 6.014696056945659E+10,      /* J = 14 */
(PID.TID 0000.0001)                 6.385621582452237E+10,      /* J = 15 */
(PID.TID 0000.0001)                 6.741163586252303E+10,      /* J = 16 */
(PID.TID 0000.0001)                 7.080465536516846E+10,      /* J = 17 */
(PID.TID 0000.0001)                 7.402710025128452E+10,      /* J = 18 */
(PID.TID 0000.0001)                 7.707120736888658E+10,      /* J = 19 */
(PID.TID 0000.0001)                 7.992964319729683E+10,      /* J = 20 */
(PID.TID 0000.0001)                 8.259552151423444E+10,      /* J = 21 */
(PID.TID 0000.0001)                 8.506241998533159E+10,      /* J = 22 */
(PID.TID 0000.0001)                 8.732439563609566E+10,      /* J = 23 */
(PID.TID 0000.0001)                 8.937599916905872E+10,      /* J = 24 */
(PID.TID 0000.0001)                 9.121228809161066E+10,      /* J = 25 */
(PID.TID 0000.0001)                 9.282883862289705E+10,      /* J = 26 */
(PID.TID 0000.0001)                 9.422175635109474E+10,      /* J = 27 */
(PID.TID 0000.0001)                 9.538768561539165E+10,      /* J = 28 */
(PID.TID 0000.0001)                 9.632381759006650E+10,      /* J = 29 */
(PID.TID 0000.0001)                 9.702789705119698E+10,      /* J = 30 */
(PID.TID 0000.0001)                 9.749822780969106E+10,      /* J = 31 */
(PID.TID 0000.0001)     2 @  9.773367679755542E+10,             /* J = 32: 33 */
(PID.TID 0000.0001)                 9.749822780969106E+10,      /* J = 34 */
(PID.TID 0000.0001)                 9.702789705119698E+10,      /* J = 35 */
(PID.TID 0000.0001)                 9.632381759006650E+10,      /* J = 36 */
(PID.TID 0000.0001)                 9.538768561539165E+10,      /* J = 37 */
(PID.TID 0000.0001)                 9.422175635109474E+10,      /* J = 38 */
(PID.TID 0000.0001)                 9.282883862289705E+10,      /* J = 39 */
(PID.TID 0000.0001)                 9.121228809161066E+10,      /* J = 40 */
(PID.TID 0000.0001)                 8.937599916905872E+10,      /* J = 41 */
(PID.TID 0000.0001)                 8.732439563609566E+10,      /* J = 42 */
(PID.TID 0000.0001)                 8.506241998533159E+10,      /* J = 43 */
(PID.TID 0000.0001)                 8.259552151423444E+10,      /* J = 44 */
(PID.TID 0000.0001)                 7.992964319729683E+10,      /* J = 45 */
(PID.TID 0000.0001)                 7.707120736888658E+10,      /* J = 46 */
(PID.TID 0000.0001)                 7.402710025128452E+10,      /* J = 47 */
(PID.TID 0000.0001)                 7.080465536516846E+10,      /* J = 48 */
(PID.TID 0000.0001)                 6.741163586252303E+10,      /* J = 49 */
(PID.TID 0000.0001)                 6.385621582452237E+10,      /* J = 50 */
(PID.TID 0000.0001)                 6.014696056945659E+10,      /* J = 51 */
(PID.TID 0000.0001)                 5.629280601812741E+10,      /* J = 52 */
(PID.TID 0000.0001)                 5.230303716643333E+10,      /* J = 53 */
(PID.TID 0000.0001)                 4.818726571700000E+10,      /* J = 54 */
(PID.TID 0000.0001)                 4.395540692374860E+10,      /* J = 55 */
(PID.TID 0000.0001)                 3.961765570517892E+10,      /* J = 56 */
(PID.TID 0000.0001)                 3.518446208391881E+10,      /* J = 57 */
(PID.TID 0000.0001)                 3.066650601170349E+10,      /* J = 58 */
(PID.TID 0000.0001)                 2.607467164043704E+10,      /* J = 59 */
(PID.TID 0000.0001)                 2.142002110131771E+10,      /* J = 60 */
(PID.TID 0000.0001)                 1.671376785519299E+10,      /* J = 61 */
(PID.TID 0000.0001)                 1.196724967835171E+10,      /* J = 62 */
(PID.TID 0000.0001)                 7.191901348828056E+09,      /* J = 63 */
(PID.TID 0000.0001)                 2.399227099019018E+09       /* J = 64 */
(PID.TID 0000.0001)     ;
(PID.TID 0000.0001) rAs =  /* rAs(:,1,:,1) ( m - cartesian, degrees - spherical ) */
(PID.TID 0000.0001)   128 @  0.000000000000000E+00              /* I =  1:128 */
(PID.TID 0000.0001)     ;
(PID.TID 0000.0001) rAs =  /* rAs(1,:,1,:) ( m - cartesian, degrees - spherical ) */
(PID.TID 0000.0001)                 0.000000000000000E+00,      /* J =  1 */
(PID.TID 0000.0001)                 4.797008993346594E+09,      /* J =  2 */
(PID.TID 0000.0001)                 9.582461571859739E+09,      /* J =  3 */
(PID.TID 0000.0001)                 1.434482916112175E+10,      /* J =  4 */
(PID.TID 0000.0001)                 1.907263880047594E+10,      /* J =  5 */
(PID.TID 0000.0001)                 2.375450078239423E+10,      /* J =  6 */
(PID.TID 0000.0001)                 2.837913609127881E+10,      /* J =  7 */
(PID.TID 0000.0001)                 3.293540357560110E+10,      /* J =  8 */
(PID.TID 0000.0001)                 3.741232678790870E+10,      /* J =  9 */
(PID.TID 0000.0001)                 4.179912042805190E+10,      /* J = 10 */
(PID.TID 0000.0001)                 4.608521632591324E+10,      /* J = 11 */
(PID.TID 0000.0001)                 5.026028890105701E+10,      /* J = 12 */
(PID.TID 0000.0001)                 5.431428003795675E+10,      /* J = 13 */
(PID.TID 0000.0001)                 5.823742331687641E+10,      /* J = 14 */
(PID.TID 0000.0001)                 6.202026754202965E+10,      /* J = 15 */
(PID.TID 0000.0001)                 6.565369951034003E+10,      /* J = 16 */
(PID.TID 0000.0001)                 6.912896596594559E+10,      /* J = 17 */
(PID.TID 0000.0001)                 7.243769468755632E+10,      /* J = 18 */
(PID.TID 0000.0001)                 7.557191465787256E+10,      /* J = 19 */
(PID.TID 0000.0001)                 7.852407526645966E+10,      /* J = 20 */
(PID.TID 0000.0001)                 8.128706449983365E+10,      /* J = 21 */
(PID.TID 0000.0001)                 8.385422607492096E+10,      /* J = 22 */
(PID.TID 0000.0001)                 8.621937547463148E+10,      /* J = 23 */
(PID.TID 0000.0001)                 8.837681484689812E+10,      /* J = 24 */
(PID.TID 0000.0001)                 9.032134673130376E+10,      /* J = 25 */
(PID.TID 0000.0001)                 9.204828658021815E+10,      /* J = 26 */
(PID.TID 0000.0001)                 9.355347404428317E+10,      /* J = 27 */
(PID.TID 0000.0001)                 9.483328299505896E+10,      /* J = 28 */
(PID.TID 0000.0001)                 9.588463026068500E+10,      /* J = 29 */
(PID.TID 0000.0001)                 9.670498305351135E+10,      /* J = 30 */
(PID.TID 0000.0001)                 9.729236507180571E+10,      /* J = 31 */
(PID.TID 0000.0001)                 9.764536126083739E+10,      /* J = 32 */
(PID.TID 0000.0001)                 9.776312122186816E+10,      /* J = 33 */
(PID.TID 0000.0001)                 9.764536126083739E+10,      /* J = 34 */
(PID.TID 0000.0001)                 9.729236507180571E+10,      /* J = 35 */
(PID.TID 0000.0001)                 9.670498305351135E+10,      /* J = 36 */
(PID.TID 0000.0001)                 9.588463026068500E+10,      /* J = 37 */
(PID.TID 0000.0001)                 9.483328299505896E+10,      /* J = 38 */
(PID.TID 0000.0001)                 9.355347404428317E+10,      /* J = 39 */
(PID.TID 0000.0001)                 9.204828658021815E+10,      /* J = 40 */
(PID.TID 0000.0001)                 9.032134673130376E+10,      /* J = 41 */
(PID.TID 0000.0001)                 8.837681484689812E+10,      /* J = 42 */
(PID.TID 0000.0001)                 8.621937547463148E+10,      /* J = 43 */
(PID.TID 0000.0001)                 8.385422607492096E+10,      /* J = 44 */
(PID.TID 0000.0001)                 8.128706449983365E+10,      /* J = 45 */
(PID.TID 0000.0001)                 7.852407526645966E+10,      /* J = 46 */
(PID.TID 0000.0001)                 7.557191465787256E+10,      /* J = 47 */
(PID.TID 0000.0001)                 7.243769468755632E+10,      /* J = 48 */
(PID.TID 0000.0001)                 6.912896596594559E+10,      /* J = 49 */
(PID.TID 0000.0001)                 6.565369951034003E+10,      /* J = 50 */
(PID.TID 0000.0001)                 6.202026754202965E+10,      /* J = 51 */
(PID.TID 0000.0001)                 5.823742331687641E+10,      /* J = 52 */
(PID.TID 0000.0001)                 5.431428003795675E+10,      /* J = 53 */
(PID.TID 0000.0001)                 5.026028890105701E+10,      /* J = 54 */
(PID.TID 0000.0001)                 4.608521632591324E+10,      /* J = 55 */
(PID.TID 0000.0001)                 4.179912042805190E+10,      /* J = 56 */
(PID.TID 0000.0001)                 3.741232678790870E+10,      /* J = 57 */
(PID.TID 0000.0001)                 3.293540357560110E+10,      /* J = 58 */
(PID.TID 0000.0001)                 2.837913609127881E+10,      /* J = 59 */
(PID.TID 0000.0001)                 2.375450078239423E+10,      /* J = 60 */
(PID.TID 0000.0001)                 1.907263880047594E+10,      /* J = 61 */
(PID.TID 0000.0001)                 1.434482916112175E+10,      /* J = 62 */
(PID.TID 0000.0001)                 9.582461571859739E+09,      /* J = 63 */
(PID.TID 0000.0001)                 4.797008993346594E+09       /* J = 64 */
(PID.TID 0000.0001)     ;
(PID.TID 0000.0001) // =======================================================
(PID.TID 0000.0001) // End of Model config. summary
(PID.TID 0000.0001) // =======================================================
(PID.TID 0000.0001) 
(PID.TID 0000.0001)  MDSREADFIELD: opening global file: pickup.0000069120
(PID.TID 0000.0001)  MDSREADFIELD: opening global file: pickup.0000069120
(PID.TID 0000.0001)  MDSREADFIELD: opening global file: pickup.0000069120
(PID.TID 0000.0001)  MDSREADFIELD: opening global file: pickup.0000069120
(PID.TID 0000.0001)  MDSREADFIELD: opening global file: pickup.0000069120
(PID.TID 0000.0001)  MDSREADFIELD: opening global file: pickup.0000069120
(PID.TID 0000.0001)  MDSREADFIELD: opening global file: pickup.0000069120
(PID.TID 0000.0001)  MDSREADFIELD: opening global file: pickup.0000069120
(PID.TID 0000.0001)  MDSREADFIELD: opening global file: pickup.0000069120
(PID.TID 0000.0001)  MDSREADFIELD: opening global file: pickup.0000069120
(PID.TID 0000.0001)  MDSREADFIELD: opening global file: pickup.0000069120
(PID.TID 0000.0001)  MDSREADFIELD: opening global file: pickup.0000069120
(PID.TID 0000.0001)  MDSREADFIELD: opening global file: pickup.0000069120
(PID.TID 0000.0001) // =======================================================
(PID.TID 0000.0001) // Model current state
(PID.TID 0000.0001) // =======================================================
(PID.TID 0000.0001) 
(PID.TID 0000.0001) // =======================================================
(PID.TID 0000.0001) // Begin MONITOR dynamic field statistics
(PID.TID 0000.0001) // =======================================================
(PID.TID 0000.0001) %MON time_tsnumber                =                 69120
(PID.TID 0000.0001) %MON time_secondsf                =   3.1104000000000E+07
(PID.TID 0000.0001) %MON dynstat_eta_max              =   3.4750754274515E+03
(PID.TID 0000.0001) %MON dynstat_eta_min              =  -3.7317805477659E+03
(PID.TID 0000.0001) %MON dynstat_eta_mean             =  -1.0282084979849E-13
(PID.TID 0000.0001) %MON dynstat_eta_sd               =   8.3738887983636E+02
(PID.TID 0000.0001) %MON dynstat_eta_del2             =   1.0686550925983E+02
(PID.TID 0000.0001) %MON dynstat_uvel_max             =   7.7412749670304E+01
(PID.TID 0000.0001) %MON dynstat_uvel_min             =  -3.7805381226225E+01
(PID.TID 0000.0001) %MON dynstat_uvel_mean            =   5.3007911849184E+00
(PID.TID 0000.0001) %MON dynstat_uvel_sd              =   1.3832589528692E+01
(PID.TID 0000.0001) %MON dynstat_uvel_del2            =   1.2218387017141E+00
(PID.TID 0000.0001) %MON dynstat_vvel_max             =   5.1663396306264E+01
(PID.TID 0000.0001) %MON dynstat_vvel_min             =  -4.2237079887553E+01
(PID.TID 0000.0001) %MON dynstat_vvel_mean            =  -2.0678669456018E-02
(PID.TID 0000.0001) %MON dynstat_vvel_sd              =   7.4569774862899E+00
(PID.TID 0000.0001) %MON dynstat_vvel_del2            =   8.9332276025057E-01
(PID.TID 0000.0001) %MON dynstat_wvel_max             =   1.4333591007797E+00
(PID.TID 0000.0001) %MON dynstat_wvel_min             =  -2.0114213380737E+00
(PID.TID 0000.0001) %MON dynstat_wvel_mean            =   1.2790757021601E-05
(PID.TID 0000.0001) %MON dynstat_wvel_sd              =   1.3373963431649E-01
(PID.TID 0000.0001) %MON dynstat_wvel_del2            =   3.7748368060929E-02
(PID.TID 0000.0001) %MON dynstat_theta_max            =   4.8944388755771E+02
(PID.TID 0000.0001) %MON dynstat_theta_min            =   2.4134881839865E+02
(PID.TID 0000.0001) %MON dynstat_theta_mean           =   3.3105896333447E+02
(PID.TID 0000.0001) %MON dynstat_theta_sd             =   4.7101471411211E+01
(PID.TID 0000.0001) %MON dynstat_theta_del2           =   6.3112549064372E-01
(PID.TID 0000.0001) %MON dynstat_salt_max             =   1.8097241399737E+01
(PID.TID 0000.0001) %MON dynstat_salt_min             =  -6.7989458269668E-01
(PID.TID 0000.0001) %MON dynstat_salt_mean            =   2.3301435992001E+00
(PID.TID 0000.0001) %MON dynstat_salt_sd              =   3.2822928285672E+00
(PID.TID 0000.0001) %MON dynstat_salt_del2            =   1.0838107008753E-01
(PID.TID 0000.0001) %MON advcfl_uvel_max              =   1.5755572917478E+00
(PID.TID 0000.0001) %MON advcfl_vvel_max              =   7.4350883859609E-02
(PID.TID 0000.0001) %MON advcfl_wvel_max              =   5.1722262979039E-02
(PID.TID 0000.0001) %MON advcfl_W_hf_max              =   1.8102792042664E-01
(PID.TID 0000.0001) %MON pe_b_mean                    =   3.6259975712578E+00
(PID.TID 0000.0001) %MON ke_max                       =   3.0460371200988E+03
(PID.TID 0000.0001) %MON ke_mean                      =   1.3652456032774E+02
(PID.TID 0000.0001) %MON ke_vol                       =   4.9304391457653E+19
(PID.TID 0000.0001) %MON vort_r_min                   =  -1.8609739948478E-04
(PID.TID 0000.0001) %MON vort_r_max                   =   2.0886891625201E-04
(PID.TID 0000.0001) %MON vort_a_mean                  =  -3.9336365756399E-07
(PID.TID 0000.0001) %MON vort_a_sd                    =   8.8969197087944E-05
(PID.TID 0000.0001) %MON vort_p_mean                  =  -3.9918847309480E-07
(PID.TID 0000.0001) %MON vort_p_sd                    =   9.2039596789096E-05
(PID.TID 0000.0001) %MON surfExpan_theta_mean         =  -5.7060368597505E-03
(PID.TID 0000.0001) %MON surfExpan_salt_mean          =   2.1144535967900E-06
(PID.TID 0000.0001) %MON surfExpan_Heat_mean          =  -2.5111206948933E-01
(PID.TID 0000.0001) %MON En_Budget_T2PE_mean          =   1.9098383172384E+00
(PID.TID 0000.0001) // =======================================================
(PID.TID 0000.0001) // End MONITOR dynamic field statistics
(PID.TID 0000.0001) // =======================================================
(PID.TID 0000.0001)  MDSREADFIELD: opening global file: salb.jan.ft.bin
(PID.TID 0000.0001)  MDSREADFIELD: opening global file: stheta.jan.ft.bin
(PID.TID 0000.0001)  MDSREADFIELD: opening global file: smoist.jan.ft.bin
 cg2d: Sum(rhs),rhsMax =   7.27595761418343E-11  3.95520295121789E+02
(PID.TID 0000.0001)                    cg2d_init_res =    4.24559955933720E+03
(PID.TID 0000.0001)                       cg2d_iters =   162
(PID.TID 0000.0001)                         cg2d_res =    1.93118079232066E-12
(PID.TID 0000.0001) // =======================================================
(PID.TID 0000.0001) // Begin MONITOR dynamic field statistics
(PID.TID 0000.0001) // =======================================================
(PID.TID 0000.0001) %MON time_tsnumber                =                 69121
(PID.TID 0000.0001) %MON time_secondsf                =   3.1104450000000E+07
(PID.TID 0000.0001) %MON dynstat_eta_max              =   3.4741505790744E+03
(PID.TID 0000.0001) %MON dynstat_eta_min              =  -3.7294076707344E+03
(PID.TID 0000.0001) %MON dynstat_eta_mean             =   7.7115637348865E-13
(PID.TID 0000.0001) %MON dynstat_eta_sd               =   8.3708207658858E+02
(PID.TID 0000.0001) %MON dynstat_eta_del2             =   1.0685783950417E+02
(PID.TID 0000.0001) %MON dynstat_uvel_max             =   7.7539116554796E+01
(PID.TID 0000.0001) %MON dynstat_uvel_min             =  -3.7784357822212E+01
(PID.TID 0000.0001) %MON dynstat_uvel_mean            =   5.3008854718645E+00
(PID.TID 0000.0001) %MON dynstat_uvel_sd              =   1.3832681426678E+01
(PID.TID 0000.0001) %MON dynstat_uvel_del2            =   1.2217217802969E+00
(PID.TID 0000.0001) %MON dynstat_vvel_max             =   5.1655884430922E+01
(PID.TID 0000.0001) %MON dynstat_vvel_min             =  -4.2219770750780E+01
(PID.TID 0000.0001) %MON dynstat_vvel_mean            =  -2.1023678549750E-02
(PID.TID 0000.0001) %MON dynstat_vvel_sd              =   7.4587042641787E+00
(PID.TID 0000.0001) %MON dynstat_vvel_del2            =   8.9332252123196E-01
(PID.TID 0000.0001) %MON dynstat_wvel_max             =   1.4358123092374E+00
(PID.TID 0000.0001) %MON dynstat_wvel_min             =  -2.0139488068690E+00
(PID.TID 0000.0001) %MON dynstat_wvel_mean            =   1.2398141991876E-05
(PID.TID 0000.0001) %MON dynstat_wvel_sd              =   1.3378814139639E-01
(PID.TID 0000.0001) %MON dynstat_wvel_del2            =   3.7740143662308E-02
(PID.TID 0000.0001) %MON dynstat_theta_max            =   4.8944769074179E+02
(PID.TID 0000.0001) %MON dynstat_theta_min            =   2.4134480748054E+02
(PID.TID 0000.0001) %MON dynstat_theta_mean           =   3.3105813636782E+02
(PID.TID 0000.0001) %MON dynstat_theta_sd             =   4.7102180341774E+01
(PID.TID 0000.0001) %MON dynstat_theta_del2           =   6.3087404314001E-01
(PID.TID 0000.0001) %MON dynstat_salt_max             =   1.8074358947136E+01
(PID.TID 0000.0001) %MON dynstat_salt_min             =  -6.8213283044990E-01
(PID.TID 0000.0001) %MON dynstat_salt_mean            =   2.3299971081347E+00
(PID.TID 0000.0001) %MON dynstat_salt_sd              =   3.2818766515298E+00
(PID.TID 0000.0001) %MON dynstat_salt_del2            =   1.0831458456103E-01
(PID.TID 0000.0001) %MON advcfl_uvel_max              =   1.5751287241380E+00
(PID.TID 0000.0001) %MON advcfl_vvel_max              =   7.4340073215884E-02
(PID.TID 0000.0001) %MON advcfl_wvel_max              =   5.1787255033775E-02
(PID.TID 0000.0001) %MON advcfl_W_hf_max              =   1.8125539261821E-01
(PID.TID 0000.0001) %MON pe_b_mean                    =   3.6233410658643E+00
(PID.TID 0000.0001) %MON ke_max                       =   3.0557904201642E+03
(PID.TID 0000.0001) %MON ke_mean                      =   1.3653908979726E+02
(PID.TID 0000.0001) %MON ke_vol                       =   4.9304391457653E+19
(PID.TID 0000.0001) %MON vort_r_min                   =  -1.8540731354684E-04
(PID.TID 0000.0001) %MON vort_r_max                   =   2.0914758585930E-04
(PID.TID 0000.0001) %MON vort_a_mean                  =  -3.9335110261541E-07
(PID.TID 0000.0001) %MON vort_a_sd                    =   8.8970003020816E-05
(PID.TID 0000.0001) %MON vort_p_mean                  =  -3.9917573223616E-07
(PID.TID 0000.0001) %MON vort_p_sd                    =   9.2040594547270E-05
(PID.TID 0000.0001) %MON surfExpan_theta_mean         =  -5.5534473400009E-03
(PID.TID 0000.0001) %MON surfExpan_salt_mean          =   9.0939631973194E-06
(PID.TID 0000.0001) %MON surfExpan_Heat_mean          =  -2.4263853207551E-01
(PID.TID 0000.0001) %MON En_Budget_T2PE_mean          =   1.9155141166763E+00
(PID.TID 0000.0001) // =======================================================
(PID.TID 0000.0001) // End MONITOR dynamic field statistics
(PID.TID 0000.0001) // =======================================================
 cg2d: Sum(rhs),rhsMax =  -3.49245965480804E-10  3.95679534089634E+02
(PID.TID 0000.0001)                    cg2d_init_res =    4.24798813881269E+03
(PID.TID 0000.0001)                       cg2d_iters =   162
(PID.TID 0000.0001)                         cg2d_res =    1.93648339564826E-12
(PID.TID 0000.0001) // =======================================================
(PID.TID 0000.0001) // Begin MONITOR dynamic field statistics
(PID.TID 0000.0001) // =======================================================
(PID.TID 0000.0001) %MON time_tsnumber                =                 69122
(PID.TID 0000.0001) %MON time_secondsf                =   3.1104900000000E+07
(PID.TID 0000.0001) %MON dynstat_eta_max              =   3.4732095143506E+03
(PID.TID 0000.0001) %MON dynstat_eta_min              =  -3.7271398519281E+03
(PID.TID 0000.0001) %MON dynstat_eta_mean             =  -4.1128339919394E-13
(PID.TID 0000.0001) %MON dynstat_eta_sd               =   8.3678571158842E+02
(PID.TID 0000.0001) %MON dynstat_eta_del2             =   1.0685315364640E+02
(PID.TID 0000.0001) %MON dynstat_uvel_max             =   7.7660468984511E+01
(PID.TID 0000.0001) %MON dynstat_uvel_min             =  -3.7760114372162E+01
(PID.TID 0000.0001) %MON dynstat_uvel_mean            =   5.3009735804786E+00
(PID.TID 0000.0001) %MON dynstat_uvel_sd              =   1.3832758530137E+01
(PID.TID 0000.0001) %MON dynstat_uvel_del2            =   1.2216634410160E+00
(PID.TID 0000.0001) %MON dynstat_vvel_max             =   5.1643590540077E+01
(PID.TID 0000.0001) %MON dynstat_vvel_min             =  -4.2201312701141E+01
(PID.TID 0000.0001) %MON dynstat_vvel_mean            =  -2.1323500534528E-02
(PID.TID 0000.0001) %MON dynstat_vvel_sd              =   7.4603802708381E+00
(PID.TID 0000.0001) %MON dynstat_vvel_del2            =   8.9333307714439E-01
(PID.TID 0000.0001) %MON dynstat_wvel_max             =   1.4418808551094E+00
(PID.TID 0000.0001) %MON dynstat_wvel_min             =  -2.0176620200858E+00
(PID.TID 0000.0001) %MON dynstat_wvel_mean            =   1.1980020509250E-05
(PID.TID 0000.0001) %MON dynstat_wvel_sd              =   1.3379151630737E-01
(PID.TID 0000.0001) %MON dynstat_wvel_del2            =   3.7736086518733E-02
(PID.TID 0000.0001) %MON dynstat_theta_max            =   4.8945180066851E+02
(PID.TID 0000.0001) %MON dynstat_theta_min            =   2.4134080616940E+02
(PID.TID 0000.0001) %MON dynstat_theta_mean           =   3.3105729092415E+02
(PID.TID 0000.0001) %MON dynstat_theta_sd             =   4.7102891005722E+01
(PID.TID 0000.0001) %MON dynstat_theta_del2           =   6.3065501768863E-01
(PID.TID 0000.0001) %MON dynstat_salt_max             =   1.8053206986206E+01
(PID.TID 0000.0001) %MON dynstat_salt_min             =  -6.8260040989223E-01
(PID.TID 0000.0001) %MON dynstat_salt_mean            =   2.3298614465892E+00
(PID.TID 0000.0001) %MON dynstat_salt_sd              =   3.2815837611133E+00
(PID.TID 0000.0001) %MON dynstat_salt_del2            =   1.0825703811004E-01
(PID.TID 0000.0001) %MON advcfl_uvel_max              =   1.5745901385931E+00
(PID.TID 0000.0001) %MON advcfl_vvel_max              =   7.4322380580174E-02
(PID.TID 0000.0001) %MON advcfl_wvel_max              =   5.1882737659349E-02
(PID.TID 0000.0001) %MON advcfl_W_hf_max              =   1.8158958180772E-01
(PID.TID 0000.0001) %MON pe_b_mean                    =   3.6207758660755E+00
(PID.TID 0000.0001) %MON ke_max                       =   3.0652098462565E+03
(PID.TID 0000.0001) %MON ke_mean                      =   1.3655301022141E+02
(PID.TID 0000.0001) %MON ke_vol                       =   4.9304391457653E+19
(PID.TID 0000.0001) %MON vort_r_min                   =  -1.8569776531013E-04
(PID.TID 0000.0001) %MON vort_r_max                   =   2.0941547447444E-04
(PID.TID 0000.0001) %MON vort_a_mean                  =  -3.9333878964498E-07
(PID.TID 0000.0001) %MON vort_a_sd                    =   8.8970761988719E-05
(PID.TID 0000.0001) %MON vort_p_mean                  =  -3.9916323693882E-07
(PID.TID 0000.0001) %MON vort_p_sd                    =   9.2041531687768E-05
(PID.TID 0000.0001) %MON surfExpan_theta_mean         =  -5.4045636480002E-03
(PID.TID 0000.0001) %MON surfExpan_salt_mean          =   1.4089666707999E-05
(PID.TID 0000.0001) %MON surfExpan_Heat_mean          =  -2.3556750698686E-01
(PID.TID 0000.0001) %MON En_Budget_T2PE_mean          =   1.9220900584123E+00
(PID.TID 0000.0001) // =======================================================
(PID.TID 0000.0001) // End MONITOR dynamic field statistics
(PID.TID 0000.0001) // =======================================================
 cg2d: Sum(rhs),rhsMax =  -2.32830643653870E-10  3.95843716122313E+02
(PID.TID 0000.0001)                    cg2d_init_res =    4.25058969683444E+03
(PID.TID 0000.0001)                       cg2d_iters =   162
(PID.TID 0000.0001)                         cg2d_res =    1.95515381081970E-12
(PID.TID 0000.0001) // =======================================================
(PID.TID 0000.0001) // Begin MONITOR dynamic field statistics
(PID.TID 0000.0001) // =======================================================
(PID.TID 0000.0001) %MON time_tsnumber                =                 69123
(PID.TID 0000.0001) %MON time_secondsf                =   3.1105350000000E+07
(PID.TID 0000.0001) %MON dynstat_eta_max              =   3.4721730017578E+03
(PID.TID 0000.0001) %MON dynstat_eta_min              =  -3.7250817357465E+03
(PID.TID 0000.0001) %MON dynstat_eta_mean             =  -7.1974594858940E-13
(PID.TID 0000.0001) %MON dynstat_eta_sd               =   8.3649655935060E+02
(PID.TID 0000.0001) %MON dynstat_eta_del2             =   1.0685129404765E+02
(PID.TID 0000.0001) %MON dynstat_uvel_max             =   7.7776736311015E+01
(PID.TID 0000.0001) %MON dynstat_uvel_min             =  -3.7733880182864E+01
(PID.TID 0000.0001) %MON dynstat_uvel_mean            =   5.3010596856862E+00
(PID.TID 0000.0001) %MON dynstat_uvel_sd              =   1.3832840231798E+01
(PID.TID 0000.0001) %MON dynstat_uvel_del2            =   1.2216253001958E+00
(PID.TID 0000.0001) %MON dynstat_vvel_max             =   5.1627098234484E+01
(PID.TID 0000.0001) %MON dynstat_vvel_min             =  -4.2180243553161E+01
(PID.TID 0000.0001) %MON dynstat_vvel_mean            =  -2.1577462321064E-02
(PID.TID 0000.0001) %MON dynstat_vvel_sd              =   7.4620364913186E+00
(PID.TID 0000.0001) %MON dynstat_vvel_del2            =   8.9337355378144E-01
(PID.TID 0000.0001) %MON dynstat_wvel_max             =   1.4472688497312E+00
(PID.TID 0000.0001) %MON dynstat_wvel_min             =  -2.0210718210400E+00
(PID.TID 0000.0001) %MON dynstat_wvel_mean            =   1.1675547995982E-05
(PID.TID 0000.0001) %MON dynstat_wvel_sd              =   1.3376422944236E-01
(PID.TID 0000.0001) %MON dynstat_wvel_del2            =   3.7739224235455E-02
(PID.TID 0000.0001) %MON dynstat_theta_max            =   4.8945585699337E+02
(PID.TID 0000.0001) %MON dynstat_theta_min            =   2.4133643268626E+02
(PID.TID 0000.0001) %MON dynstat_theta_mean           =   3.3105643851698E+02
(PID.TID 0000.0001) %MON dynstat_theta_sd             =   4.7103601421312E+01
(PID.TID 0000.0001) %MON dynstat_theta_del2           =   6.3045497025379E-01
(PID.TID 0000.0001) %MON dynstat_salt_max             =   1.8032692143588E+01
(PID.TID 0000.0001) %MON dynstat_salt_min             =  -6.8330897422531E-01
(PID.TID 0000.0001) %MON dynstat_salt_mean            =   2.3297323789408E+00
(PID.TID 0000.0001) %MON dynstat_salt_sd              =   3.2812707149518E+00
(PID.TID 0000.0001) %MON dynstat_salt_del2            =   1.0821676205433E-01
(PID.TID 0000.0001) %MON advcfl_uvel_max              =   1.5740265602868E+00
(PID.TID 0000.0001) %MON advcfl_vvel_max              =   7.4298645835936E-02
(PID.TID 0000.0001) %MON advcfl_wvel_max              =   5.1970418255315E-02
(PID.TID 0000.0001) %MON advcfl_W_hf_max              =   1.8189646389360E-01
(PID.TID 0000.0001) %MON pe_b_mean                    =   3.6182739721222E+00
(PID.TID 0000.0001) %MON ke_max                       =   3.0742951038338E+03
(PID.TID 0000.0001) %MON ke_mean                      =   1.3656683884190E+02
(PID.TID 0000.0001) %MON ke_vol                       =   4.9304391457653E+19
(PID.TID 0000.0001) %MON vort_r_min                   =  -1.8603217988351E-04
(PID.TID 0000.0001) %MON vort_r_max                   =   2.0968164315114E-04
(PID.TID 0000.0001) %MON vort_a_mean                  =  -3.9332660299756E-07
(PID.TID 0000.0001) %MON vort_a_sd                    =   8.8971521994560E-05
(PID.TID 0000.0001) %MON vort_p_mean                  =  -3.9915086983504E-07
(PID.TID 0000.0001) %MON vort_p_sd                    =   9.2042467312239E-05
(PID.TID 0000.0001) %MON surfExpan_theta_mean         =  -5.2973889993749E-03
(PID.TID 0000.0001) %MON surfExpan_salt_mean          =   2.1900398392849E-05
(PID.TID 0000.0001) %MON surfExpan_Heat_mean          =  -2.3034790034018E-01
(PID.TID 0000.0001) %MON En_Budget_T2PE_mean          =   1.9264813725896E+00
(PID.TID 0000.0001) // =======================================================
(PID.TID 0000.0001) // End MONITOR dynamic field statistics
(PID.TID 0000.0001) // =======================================================
 cg2d: Sum(rhs),rhsMax =  -5.52972778677940E-10  3.96021094229182E+02
(PID.TID 0000.0001)                    cg2d_init_res =    4.25341369834157E+03
(PID.TID 0000.0001)                       cg2d_iters =   162
(PID.TID 0000.0001)                         cg2d_res =    1.97332038944792E-12
(PID.TID 0000.0001) // =======================================================
(PID.TID 0000.0001) // Begin MONITOR dynamic field statistics
(PID.TID 0000.0001) // =======================================================
(PID.TID 0000.0001) %MON time_tsnumber                =                 69124
(PID.TID 0000.0001) %MON time_secondsf                =   3.1105800000000E+07
(PID.TID 0000.0001) %MON dynstat_eta_max              =   3.4709514908036E+03
(PID.TID 0000.0001) %MON dynstat_eta_min              =  -3.7232101071303E+03
(PID.TID 0000.0001) %MON dynstat_eta_mean             =   3.8557818674432E-13
(PID.TID 0000.0001) %MON dynstat_eta_sd               =   8.3621008337611E+02
(PID.TID 0000.0001) %MON dynstat_eta_del2             =   1.0685567632319E+02
(PID.TID 0000.0001) %MON dynstat_uvel_max             =   7.7888104294757E+01
(PID.TID 0000.0001) %MON dynstat_uvel_min             =  -3.7706615127176E+01
(PID.TID 0000.0001) %MON dynstat_uvel_mean            =   5.3011437076403E+00
(PID.TID 0000.0001) %MON dynstat_uvel_sd              =   1.3832927370721E+01
(PID.TID 0000.0001) %MON dynstat_uvel_del2            =   1.2216138306144E+00
(PID.TID 0000.0001) %MON dynstat_vvel_max             =   5.1606370936824E+01
(PID.TID 0000.0001) %MON dynstat_vvel_min             =  -4.2155864427046E+01
(PID.TID 0000.0001) %MON dynstat_vvel_mean            =  -2.1784655047093E-02
(PID.TID 0000.0001) %MON dynstat_vvel_sd              =   7.4636783465097E+00
(PID.TID 0000.0001) %MON dynstat_vvel_del2            =   8.9340149768650E-01
(PID.TID 0000.0001) %MON dynstat_wvel_max             =   1.4506023272523E+00
(PID.TID 0000.0001) %MON dynstat_wvel_min             =  -2.0234792760060E+00
(PID.TID 0000.0001) %MON dynstat_wvel_mean            =   1.1527042200353E-05
(PID.TID 0000.0001) %MON dynstat_wvel_sd              =   1.3372621552069E-01
(PID.TID 0000.0001) %MON dynstat_wvel_del2            =   3.7739663054197E-02
(PID.TID 0000.0001) %MON dynstat_theta_max            =   4.8945975874522E+02
(PID.TID 0000.0001) %MON dynstat_theta_min            =   2.4133150160080E+02
(PID.TID 0000.0001) %MON dynstat_theta_mean           =   3.3105557436995E+02
(PID.TID 0000.0001) %MON dynstat_theta_sd             =   4.7104311503330E+01
(PID.TID 0000.0001) %MON dynstat_theta_del2           =   6.3027136617324E-01
(PID.TID 0000.0001) %MON dynstat_salt_max             =   1.8013093367036E+01
(PID.TID 0000.0001) %MON dynstat_salt_min             =  -6.9026173344362E-01
(PID.TID 0000.0001) %MON dynstat_salt_mean            =   2.3296111802265E+00
(PID.TID 0000.0001) %MON dynstat_salt_sd              =   3.2809724640948E+00
(PID.TID 0000.0001) %MON dynstat_salt_del2            =   1.0817686655581E-01
(PID.TID 0000.0001) %MON advcfl_uvel_max              =   1.5734433460003E+00
(PID.TID 0000.0001) %MON advcfl_vvel_max              =   7.4268816343275E-02
(PID.TID 0000.0001) %MON advcfl_wvel_max              =   5.2032324240153E-02
(PID.TID 0000.0001) %MON advcfl_W_hf_max              =   1.8211313484054E-01
(PID.TID 0000.0001) %MON pe_b_mean                    =   3.6157960872905E+00
(PID.TID 0000.0001) %MON ke_max                       =   3.0830501076977E+03
(PID.TID 0000.0001) %MON ke_mean                      =   1.3658062671428E+02
(PID.TID 0000.0001) %MON ke_vol                       =   4.9304391457653E+19
(PID.TID 0000.0001) %MON vort_r_min                   =  -1.8633919707938E-04
(PID.TID 0000.0001) %MON vort_r_max                   =   2.0994640104465E-04
(PID.TID 0000.0001) %MON vort_a_mean                  =  -3.9331448114971E-07
(PID.TID 0000.0001) %MON vort_a_sd                    =   8.8972287069503E-05
(PID.TID 0000.0001) %MON vort_p_mean                  =  -3.9913856849036E-07
(PID.TID 0000.0001) %MON vort_p_sd                    =   9.2043402467777E-05
(PID.TID 0000.0001) %MON surfExpan_theta_mean         =  -5.2389134203882E-03
(PID.TID 0000.0001) %MON surfExpan_salt_mean          =   3.2878551611812E-05
(PID.TID 0000.0001) %MON surfExpan_Heat_mean          =  -2.2678105663602E-01
(PID.TID 0000.0001) %MON En_Budget_T2PE_mean          =   1.9278487075421E+00
(PID.TID 0000.0001) // =======================================================
(PID.TID 0000.0001) // End MONITOR dynamic field statistics
(PID.TID 0000.0001) // =======================================================
 cg2d: Sum(rhs),rhsMax =   2.03726813197136E-10  3.96211684702658E+02
(PID.TID 0000.0001)                    cg2d_init_res =    4.25648818858905E+03
(PID.TID 0000.0001)                       cg2d_iters =   162
(PID.TID 0000.0001)                         cg2d_res =    1.98325577800518E-12
(PID.TID 0000.0001) // =======================================================
(PID.TID 0000.0001) // Begin MONITOR dynamic field statistics
(PID.TID 0000.0001) // =======================================================
(PID.TID 0000.0001) %MON time_tsnumber                =                 69125
(PID.TID 0000.0001) %MON time_secondsf                =   3.1106250000000E+07
(PID.TID 0000.0001) %MON dynstat_eta_max              =   3.4694635210991E+03
(PID.TID 0000.0001) %MON dynstat_eta_min              =  -3.7214317428042E+03
(PID.TID 0000.0001) %MON dynstat_eta_mean             =   1.0282084979849E-13
(PID.TID 0000.0001) %MON dynstat_eta_sd               =   8.3592154384439E+02
(PID.TID 0000.0001) %MON dynstat_eta_del2             =   1.0686557956335E+02
(PID.TID 0000.0001) %MON dynstat_uvel_max             =   7.7994799149307E+01
(PID.TID 0000.0001) %MON dynstat_uvel_min             =  -3.7679022089031E+01
(PID.TID 0000.0001) %MON dynstat_uvel_mean            =   5.3012258900228E+00
(PID.TID 0000.0001) %MON dynstat_uvel_sd              =   1.3833019494212E+01
(PID.TID 0000.0001) %MON dynstat_uvel_del2            =   1.2215886813883E+00
(PID.TID 0000.0001) %MON dynstat_vvel_max             =   5.1580821565050E+01
(PID.TID 0000.0001) %MON dynstat_vvel_min             =  -4.2127913575014E+01
(PID.TID 0000.0001) %MON dynstat_vvel_mean            =  -2.1944409690218E-02
(PID.TID 0000.0001) %MON dynstat_vvel_sd              =   7.4653129185697E+00
(PID.TID 0000.0001) %MON dynstat_vvel_del2            =   8.9342830379854E-01
(PID.TID 0000.0001) %MON dynstat_wvel_max             =   1.4521360150333E+00
(PID.TID 0000.0001) %MON dynstat_wvel_min             =  -2.0253218774045E+00
(PID.TID 0000.0001) %MON dynstat_wvel_mean            =   1.1532689160325E-05
(PID.TID 0000.0001) %MON dynstat_wvel_sd              =   1.3369046916409E-01
(PID.TID 0000.0001) %MON dynstat_wvel_del2            =   3.7734172539892E-02
(PID.TID 0000.0001) %MON dynstat_theta_max            =   4.8946350449735E+02
(PID.TID 0000.0001) %MON dynstat_theta_min            =   2.4132642634033E+02
(PID.TID 0000.0001) %MON dynstat_theta_mean           =   3.3105472572211E+02
(PID.TID 0000.0001) %MON dynstat_theta_sd             =   4.7105014364508E+01
(PID.TID 0000.0001) %MON dynstat_theta_del2           =   6.3012348453936E-01
(PID.TID 0000.0001) %MON dynstat_salt_max             =   1.7994392275377E+01
(PID.TID 0000.0001) %MON dynstat_salt_min             =  -6.9716548690310E-01
(PID.TID 0000.0001) %MON dynstat_salt_mean            =   2.3294881557408E+00
(PID.TID 0000.0001) %MON dynstat_salt_sd              =   3.2806763317894E+00
(PID.TID 0000.0001) %MON dynstat_salt_del2            =   1.0813360654225E-01
(PID.TID 0000.0001) %MON advcfl_uvel_max              =   1.5728329761862E+00
(PID.TID 0000.0001) %MON advcfl_vvel_max              =   7.4232047208660E-02
(PID.TID 0000.0001) %MON advcfl_wvel_max              =   5.2079705418974E-02
(PID.TID 0000.0001) %MON advcfl_W_hf_max              =   1.8227896896641E-01
(PID.TID 0000.0001) %MON pe_b_mean                    =   3.6133012115841E+00
(PID.TID 0000.0001) %MON ke_max                       =   3.0914753323166E+03
(PID.TID 0000.0001) %MON ke_mean                      =   1.3659442118984E+02
(PID.TID 0000.0001) %MON ke_vol                       =   4.9304391457653E+19
(PID.TID 0000.0001) %MON vort_r_min                   =  -1.8661932432587E-04
(PID.TID 0000.0001) %MON vort_r_max                   =   2.1020959038855E-04
(PID.TID 0000.0001) %MON vort_a_mean                  =  -3.9330236351250E-07
(PID.TID 0000.0001) %MON vort_a_sd                    =   8.8973060857650E-05
(PID.TID 0000.0001) %MON vort_p_mean                  =  -3.9912627141868E-07
(PID.TID 0000.0001) %MON vort_p_sd                    =   9.2044339404951E-05
(PID.TID 0000.0001) %MON surfExpan_theta_mean         =  -5.2183161405949E-03
(PID.TID 0000.0001) %MON surfExpan_salt_mean          =   4.6719025258380E-05
(PID.TID 0000.0001) %MON surfExpan_Heat_mean          =  -2.2393768918328E-01
(PID.TID 0000.0001) %MON En_Budget_T2PE_mean          =   1.9266300462501E+00
(PID.TID 0000.0001) // =======================================================
(PID.TID 0000.0001) // End MONITOR dynamic field statistics
(PID.TID 0000.0001) // =======================================================
 cg2d: Sum(rhs),rhsMax =   4.22005541622639E-10  3.96408964604933E+02
(PID.TID 0000.0001)                    cg2d_init_res =    4.25984097698414E+03
(PID.TID 0000.0001)                       cg2d_iters =   162
(PID.TID 0000.0001)                         cg2d_res =    1.98459249503707E-12
(PID.TID 0000.0001) // =======================================================
(PID.TID 0000.0001) // Begin MONITOR dynamic field statistics
(PID.TID 0000.0001) // =======================================================
(PID.TID 0000.0001) %MON time_tsnumber                =                 69126
(PID.TID 0000.0001) %MON time_secondsf                =   3.1106700000000E+07
(PID.TID 0000.0001) %MON dynstat_eta_max              =   3.4676592418103E+03
(PID.TID 0000.0001) %MON dynstat_eta_min              =  -3.7196320843659E+03
(PID.TID 0000.0001) %MON dynstat_eta_mean             =  -6.1692509879092E-13
(PID.TID 0000.0001) %MON dynstat_eta_sd               =   8.3562719568572E+02
(PID.TID 0000.0001) %MON dynstat_eta_del2             =   1.0687642962204E+02
(PID.TID 0000.0001) %MON dynstat_uvel_max             =   7.8096972280962E+01
(PID.TID 0000.0001) %MON dynstat_uvel_min             =  -3.7650996539424E+01
(PID.TID 0000.0001) %MON dynstat_uvel_mean            =   5.3013066033786E+00
(PID.TID 0000.0001) %MON dynstat_uvel_sd              =   1.3833116946129E+01
(PID.TID 0000.0001) %MON dynstat_uvel_del2            =   1.2215351122625E+00
(PID.TID 0000.0001) %MON dynstat_vvel_max             =   5.1549684494988E+01
(PID.TID 0000.0001) %MON dynstat_vvel_min             =  -4.2096439450308E+01
(PID.TID 0000.0001) %MON dynstat_vvel_mean            =  -2.2056166844495E-02
(PID.TID 0000.0001) %MON dynstat_vvel_sd              =   7.4669459379364E+00
(PID.TID 0000.0001) %MON dynstat_vvel_del2            =   8.9343286248534E-01
(PID.TID 0000.0001) %MON dynstat_wvel_max             =   1.4526680571190E+00
(PID.TID 0000.0001) %MON dynstat_wvel_min             =  -2.0272762922297E+00
(PID.TID 0000.0001) %MON dynstat_wvel_mean            =   1.1644148888630E-05
(PID.TID 0000.0001) %MON dynstat_wvel_sd              =   1.3366289307042E-01
(PID.TID 0000.0001) %MON dynstat_wvel_del2            =   3.7727263365442E-02
(PID.TID 0000.0001) %MON dynstat_theta_max            =   4.8946715524571E+02
(PID.TID 0000.0001) %MON dynstat_theta_min            =   2.4132119608143E+02
(PID.TID 0000.0001) %MON dynstat_theta_mean           =   3.3105387047343E+02
(PID.TID 0000.0001) %MON dynstat_theta_sd             =   4.7105717306658E+01
(PID.TID 0000.0001) %MON dynstat_theta_del2           =   6.2995090798194E-01
(PID.TID 0000.0001) %MON dynstat_salt_max             =   1.7976548842158E+01
(PID.TID 0000.0001) %MON dynstat_salt_min             =  -7.0401047582344E-01
(PID.TID 0000.0001) %MON dynstat_salt_mean            =   2.3293712888113E+00
(PID.TID 0000.0001) %MON dynstat_salt_sd              =   3.2803917758926E+00
(PID.TID 0000.0001) %MON dynstat_salt_del2            =   1.0809501700707E-01
(PID.TID 0000.0001) %MON advcfl_uvel_max              =   1.5721763926767E+00
(PID.TID 0000.0001) %MON advcfl_vvel_max              =   7.4187236591367E-02
(PID.TID 0000.0001) %MON advcfl_wvel_max              =   5.2129961800193E-02
(PID.TID 0000.0001) %MON advcfl_W_hf_max              =   1.8245486630068E-01
(PID.TID 0000.0001) %MON pe_b_mean                    =   3.6107569984050E+00
(PID.TID 0000.0001) %MON ke_max                       =   3.0995663746758E+03
(PID.TID 0000.0001) %MON ke_mean                      =   1.3660827128251E+02
(PID.TID 0000.0001) %MON ke_vol                       =   4.9304391457653E+19
(PID.TID 0000.0001) %MON vort_r_min                   =  -1.8687325768521E-04
(PID.TID 0000.0001) %MON vort_r_max                   =   2.1047159469771E-04
(PID.TID 0000.0001) %MON vort_a_mean                  =  -3.9329022293261E-07
(PID.TID 0000.0001) %MON vort_a_sd                    =   8.8973846090822E-05
(PID.TID 0000.0001) %MON vort_p_mean                  =  -3.9911395106459E-07
(PID.TID 0000.0001) %MON vort_p_sd                    =   9.2045280834293E-05
(PID.TID 0000.0001) %MON surfExpan_theta_mean         =  -5.2111764447547E-03
(PID.TID 0000.0001) %MON surfExpan_salt_mean          =   5.7056648361043E-05
(PID.TID 0000.0001) %MON surfExpan_Heat_mean          =  -2.2089814412014E-01
(PID.TID 0000.0001) %MON En_Budget_T2PE_mean          =   1.9239567218201E+00
(PID.TID 0000.0001) // =======================================================
(PID.TID 0000.0001) // End MONITOR dynamic field statistics
(PID.TID 0000.0001) // =======================================================
 cg2d: Sum(rhs),rhsMax =  -2.18278728425503E-10  3.96603332987312E+02
(PID.TID 0000.0001)                    cg2d_init_res =    4.26349831067417E+03
(PID.TID 0000.0001)                       cg2d_iters =   162
(PID.TID 0000.0001)                         cg2d_res =    1.98001064026113E-12
(PID.TID 0000.0001) // =======================================================
(PID.TID 0000.0001) // Begin MONITOR dynamic field statistics
(PID.TID 0000.0001) // =======================================================
(PID.TID 0000.0001) %MON time_tsnumber                =                 69127
(PID.TID 0000.0001) %MON time_secondsf                =   3.1107150000000E+07
(PID.TID 0000.0001) %MON dynstat_eta_max              =   3.4655411136940E+03
(PID.TID 0000.0001) %MON dynstat_eta_min              =  -3.7177049095370E+03
(PID.TID 0000.0001) %MON dynstat_eta_mean             =   1.0282084979849E-13
(PID.TID 0000.0001) %MON dynstat_eta_sd               =   8.3532454553751E+02
(PID.TID 0000.0001) %MON dynstat_eta_del2             =   1.0688551992491E+02
(PID.TID 0000.0001) %MON dynstat_uvel_max             =   7.8194632264918E+01
(PID.TID 0000.0001) %MON dynstat_uvel_min             =  -3.7622012506164E+01
(PID.TID 0000.0001) %MON dynstat_uvel_mean            =   5.3013861914096E+00
(PID.TID 0000.0001) %MON dynstat_uvel_sd              =   1.3833218376691E+01
(PID.TID 0000.0001) %MON dynstat_uvel_del2            =   1.2214616779918E+00
(PID.TID 0000.0001) %MON dynstat_vvel_max             =   5.1512371934205E+01
(PID.TID 0000.0001) %MON dynstat_vvel_min             =  -4.2061625609577E+01
(PID.TID 0000.0001) %MON dynstat_vvel_mean            =  -2.2119226875459E-02
(PID.TID 0000.0001) %MON dynstat_vvel_sd              =   7.4685820369784E+00
(PID.TID 0000.0001) %MON dynstat_vvel_del2            =   8.9344495540279E-01
(PID.TID 0000.0001) %MON dynstat_wvel_max             =   1.4528638581873E+00
(PID.TID 0000.0001) %MON dynstat_wvel_min             =  -2.0297167195195E+00
(PID.TID 0000.0001) %MON dynstat_wvel_mean            =   1.1862004816126E-05
(PID.TID 0000.0001) %MON dynstat_wvel_sd              =   1.3363995290337E-01
(PID.TID 0000.0001) %MON dynstat_wvel_del2            =   3.7717266597737E-02
(PID.TID 0000.0001) %MON dynstat_theta_max            =   4.8947079298419E+02
(PID.TID 0000.0001) %MON dynstat_theta_min            =   2.4131574049317E+02
(PID.TID 0000.0001) %MON dynstat_theta_mean           =   3.3105300751948E+02
(PID.TID 0000.0001) %MON dynstat_theta_sd             =   4.7106422025941E+01
(PID.TID 0000.0001) %MON dynstat_theta_del2           =   6.2978749744651E-01
(PID.TID 0000.0001) %MON dynstat_salt_max             =   1.7959510875175E+01
(PID.TID 0000.0001) %MON dynstat_salt_min             =  -7.1078489218062E-01
(PID.TID 0000.0001) %MON dynstat_salt_mean            =   2.3292609569834E+00
(PID.TID 0000.0001) %MON dynstat_salt_sd              =   3.2801231927092E+00
(PID.TID 0000.0001) %MON dynstat_salt_del2            =   1.0805474915227E-01
(PID.TID 0000.0001) %MON advcfl_uvel_max              =   1.5716396124741E+00
(PID.TID 0000.0001) %MON advcfl_vvel_max              =   7.4133538575526E-02
(PID.TID 0000.0001) %MON advcfl_wvel_max              =   5.2192715644788E-02
(PID.TID 0000.0001) %MON advcfl_W_hf_max              =   1.8267450475676E-01
(PID.TID 0000.0001) %MON pe_b_mean                    =   3.6081419608616E+00
(PID.TID 0000.0001) %MON ke_max                       =   3.1073148086465E+03
(PID.TID 0000.0001) %MON ke_mean                      =   1.3662219450971E+02
(PID.TID 0000.0001) %MON ke_vol                       =   4.9304391457653E+19
(PID.TID 0000.0001) %MON vort_r_min                   =  -1.8710176887996E-04
(PID.TID 0000.0001) %MON vort_r_max                   =   2.1073312049929E-04
(PID.TID 0000.0001) %MON vort_a_mean                  =  -3.9327807331410E-07
(PID.TID 0000.0001) %MON vort_a_sd                    =   8.8974644135611E-05
(PID.TID 0000.0001) %MON vort_p_mean                  =  -3.9910162153803E-07
(PID.TID 0000.0001) %MON vort_p_sd                    =   9.2046228639713E-05
(PID.TID 0000.0001) %MON surfExpan_theta_mean         =  -5.2171030819346E-03
(PID.TID 0000.0001) %MON surfExpan_salt_mean          =   6.8322722778959E-05
(PID.TID 0000.0001) %MON surfExpan_Heat_mean          =  -2.1734772291804E-01
(PID.TID 0000.0001) %MON En_Budget_T2PE_mean          =   1.9198022187462E+00
(PID.TID 0000.0001) // =======================================================
(PID.TID 0000.0001) // End MONITOR dynamic field statistics
(PID.TID 0000.0001) // =======================================================
 cg2d: Sum(rhs),rhsMax =   2.18278728425503E-10  3.96786226491142E+02
(PID.TID 0000.0001)                    cg2d_init_res =    4.26748391977546E+03
(PID.TID 0000.0001)                       cg2d_iters =   162
(PID.TID 0000.0001)                         cg2d_res =    1.97191242579721E-12
(PID.TID 0000.0001) // =======================================================
(PID.TID 0000.0001) // Begin MONITOR dynamic field statistics
(PID.TID 0000.0001) // =======================================================
(PID.TID 0000.0001) %MON time_tsnumber                =                 69128
(PID.TID 0000.0001) %MON time_secondsf                =   3.1107600000000E+07
(PID.TID 0000.0001) %MON dynstat_eta_max              =   3.4631585721095E+03
(PID.TID 0000.0001) %MON dynstat_eta_min              =  -3.7155707269261E+03
(PID.TID 0000.0001) %MON dynstat_eta_mean             =   6.4263031124054E-13
(PID.TID 0000.0001) %MON dynstat_eta_sd               =   8.3501240358163E+02
(PID.TID 0000.0001) %MON dynstat_eta_del2             =   1.0689030311761E+02
(PID.TID 0000.0001) %MON dynstat_uvel_max             =   7.8287663111263E+01
(PID.TID 0000.0001) %MON dynstat_uvel_min             =  -3.7591540120422E+01
(PID.TID 0000.0001) %MON dynstat_uvel_mean            =   5.3014651454807E+00
(PID.TID 0000.0001) %MON dynstat_uvel_sd              =   1.3833323693980E+01
(PID.TID 0000.0001) %MON dynstat_uvel_del2            =   1.2213808928395E+00
(PID.TID 0000.0001) %MON dynstat_vvel_max             =   5.1468584600281E+01
(PID.TID 0000.0001) %MON dynstat_vvel_min             =  -4.2023664803952E+01
(PID.TID 0000.0001) %MON dynstat_vvel_mean            =  -2.2133152206252E-02
(PID.TID 0000.0001) %MON dynstat_vvel_sd              =   7.4702236497443E+00
(PID.TID 0000.0001) %MON dynstat_vvel_del2            =   8.9348100710546E-01
(PID.TID 0000.0001) %MON dynstat_wvel_max             =   1.4530181021622E+00
(PID.TID 0000.0001) %MON dynstat_wvel_min             =  -2.0326955107032E+00
(PID.TID 0000.0001) %MON dynstat_wvel_mean            =   1.2156376558579E-05
(PID.TID 0000.0001) %MON dynstat_wvel_sd              =   1.3362139481811E-01
(PID.TID 0000.0001) %MON dynstat_wvel_del2            =   3.7705156429998E-02
(PID.TID 0000.0001) %MON dynstat_theta_max            =   4.8947447526863E+02
(PID.TID 0000.0001) %MON dynstat_theta_min            =   2.4130969115355E+02
(PID.TID 0000.0001) %MON dynstat_theta_mean           =   3.3105213619007E+02
(PID.TID 0000.0001) %MON dynstat_theta_sd             =   4.7107126343519E+01
(PID.TID 0000.0001) %MON dynstat_theta_del2           =   6.2964035650246E-01
(PID.TID 0000.0001) %MON dynstat_salt_max             =   1.7943222281841E+01
(PID.TID 0000.0001) %MON dynstat_salt_min             =  -7.1745805558177E-01
(PID.TID 0000.0001) %MON dynstat_salt_mean            =   2.3291574124795E+00
(PID.TID 0000.0001) %MON dynstat_salt_sd              =   3.2798683318464E+00
(PID.TID 0000.0001) %MON dynstat_salt_del2            =   1.0800983113861E-01
(PID.TID 0000.0001) %MON advcfl_uvel_max              =   1.5710291041794E+00
(PID.TID 0000.0001) %MON advcfl_vvel_max              =   7.4070522451695E-02
(PID.TID 0000.0001) %MON advcfl_wvel_max              =   5.2269313132368E-02
(PID.TID 0000.0001) %MON advcfl_W_hf_max              =   1.8294259596329E-01
(PID.TID 0000.0001) %MON pe_b_mean                    =   3.6054459020251E+00
(PID.TID 0000.0001) %MON ke_max                       =   3.1147114265242E+03
(PID.TID 0000.0001) %MON ke_mean                      =   1.3663621021408E+02
(PID.TID 0000.0001) %MON ke_vol                       =   4.9304391457653E+19
(PID.TID 0000.0001) %MON vort_r_min                   =  -1.8730563042422E-04
(PID.TID 0000.0001) %MON vort_r_max                   =   2.1099495307298E-04
(PID.TID 0000.0001) %MON vort_a_mean                  =  -3.9326595908708E-07
(PID.TID 0000.0001) %MON vort_a_sd                    =   8.8975455405089E-05
(PID.TID 0000.0001) %MON vort_p_mean                  =  -3.9908932792703E-07
(PID.TID 0000.0001) %MON vort_p_sd                    =   9.2047183670445E-05
(PID.TID 0000.0001) %MON surfExpan_theta_mean         =  -5.2317697020707E-03
(PID.TID 0000.0001) %MON surfExpan_salt_mean          =   8.3052942319043E-05
(PID.TID 0000.0001) %MON surfExpan_Heat_mean          =  -2.1332035621247E-01
(PID.TID 0000.0001) %MON En_Budget_T2PE_mean          =   1.9143964084594E+00
(PID.TID 0000.0001) // =======================================================
(PID.TID 0000.0001) // End MONITOR dynamic field statistics
(PID.TID 0000.0001) // =======================================================
 cg2d: Sum(rhs),rhsMax =   2.18278728425503E-10  3.96953482855337E+02
(PID.TID 0000.0001)                    cg2d_init_res =    4.27181399519410E+03
(PID.TID 0000.0001)                       cg2d_iters =   162
(PID.TID 0000.0001)                         cg2d_res =    1.96159969795928E-12
(PID.TID 0000.0001) // =======================================================
(PID.TID 0000.0001) // Begin MONITOR dynamic field statistics
(PID.TID 0000.0001) // =======================================================
(PID.TID 0000.0001) %MON time_tsnumber                =                 69129
(PID.TID 0000.0001) %MON time_secondsf                =   3.1108050000000E+07
(PID.TID 0000.0001) %MON dynstat_eta_max              =   3.4605857507022E+03
(PID.TID 0000.0001) %MON dynstat_eta_min              =  -3.7131893871563E+03
(PID.TID 0000.0001) %MON dynstat_eta_mean             =   4.6269382409319E-13
(PID.TID 0000.0001) %MON dynstat_eta_sd               =   8.3469085498167E+02
(PID.TID 0000.0001) %MON dynstat_eta_del2             =   1.0689138033816E+02
(PID.TID 0000.0001) %MON dynstat_uvel_max             =   7.8375894353942E+01
(PID.TID 0000.0001) %MON dynstat_uvel_min             =  -3.7559228932395E+01
(PID.TID 0000.0001) %MON dynstat_uvel_mean            =   5.3015436812653E+00
(PID.TID 0000.0001) %MON dynstat_uvel_sd              =   1.3833431532447E+01
(PID.TID 0000.0001) %MON dynstat_uvel_del2            =   1.2212852777245E+00
(PID.TID 0000.0001) %MON dynstat_vvel_max             =   5.1418255787650E+01
(PID.TID 0000.0001) %MON dynstat_vvel_min             =  -4.1982700719505E+01
(PID.TID 0000.0001) %MON dynstat_vvel_mean            =  -2.2097579322893E-02
(PID.TID 0000.0001) %MON dynstat_vvel_sd              =   7.4718731211590E+00
(PID.TID 0000.0001) %MON dynstat_vvel_del2            =   8.9353000665488E-01
(PID.TID 0000.0001) %MON dynstat_wvel_max             =   1.4531644278950E+00
(PID.TID 0000.0001) %MON dynstat_wvel_min             =  -2.0360304100135E+00
(PID.TID 0000.0001) %MON dynstat_wvel_mean            =   1.2496665002148E-05
(PID.TID 0000.0001) %MON dynstat_wvel_sd              =   1.3360341070985E-01
(PID.TID 0000.0001) %MON dynstat_wvel_del2            =   3.7691331908713E-02
(PID.TID 0000.0001) %MON dynstat_theta_max            =   4.8947821443173E+02
(PID.TID 0000.0001) %MON dynstat_theta_min            =   2.4130351199297E+02
(PID.TID 0000.0001) %MON dynstat_theta_mean           =   3.3105125981471E+02
(PID.TID 0000.0001) %MON dynstat_theta_sd             =   4.7107831195633E+01
(PID.TID 0000.0001) %MON dynstat_theta_del2           =   6.2950637942974E-01
(PID.TID 0000.0001) %MON dynstat_salt_max             =   1.7927635212525E+01
(PID.TID 0000.0001) %MON dynstat_salt_min             =  -7.2401297878546E-01
(PID.TID 0000.0001) %MON dynstat_salt_mean            =   2.3290592484786E+00
(PID.TID 0000.0001) %MON dynstat_salt_sd              =   3.2796311898470E+00
(PID.TID 0000.0001) %MON dynstat_salt_del2            =   1.0796098711651E-01
(PID.TID 0000.0001) %MON advcfl_uvel_max              =   1.5703384911958E+00
(PID.TID 0000.0001) %MON advcfl_vvel_max              =   7.3998092221199E-02
(PID.TID 0000.0001) %MON advcfl_wvel_max              =   5.2355067686062E-02
(PID.TID 0000.0001) %MON advcfl_W_hf_max              =   1.8324273690122E-01
(PID.TID 0000.0001) %MON pe_b_mean                    =   3.6026696489802E+00
(PID.TID 0000.0001) %MON ke_max                       =   3.1217493610572E+03
(PID.TID 0000.0001) %MON ke_mean                      =   1.3665031815333E+02
(PID.TID 0000.0001) %MON ke_vol                       =   4.9304391457653E+19
(PID.TID 0000.0001) %MON vort_r_min                   =  -1.8748559428345E-04
(PID.TID 0000.0001) %MON vort_r_max                   =   2.1125773860813E-04
(PID.TID 0000.0001) %MON vort_a_mean                  =  -3.9325393760175E-07
(PID.TID 0000.0001) %MON vort_a_sd                    =   8.8976280226921E-05
(PID.TID 0000.0001) %MON vort_p_mean                  =  -3.9907712843102E-07
(PID.TID 0000.0001) %MON vort_p_sd                    =   9.2048146466612E-05
(PID.TID 0000.0001) %MON surfExpan_theta_mean         =  -5.2540098861011E-03
(PID.TID 0000.0001) %MON surfExpan_salt_mean          =   1.0283387515720E-04
(PID.TID 0000.0001) %MON surfExpan_Heat_mean          =  -2.0916564253916E-01
(PID.TID 0000.0001) %MON En_Budget_T2PE_mean          =   1.9084525636991E+00
(PID.TID 0000.0001) // =======================================================
(PID.TID 0000.0001) // End MONITOR dynamic field statistics
(PID.TID 0000.0001) // =======================================================
 cg2d: Sum(rhs),rhsMax =   1.45519152283669E-11  3.97106238551017E+02
(PID.TID 0000.0001)                    cg2d_init_res =    4.27649506810484E+03
(PID.TID 0000.0001)                       cg2d_iters =   162
(PID.TID 0000.0001)                         cg2d_res =    1.94995689410063E-12
(PID.TID 0000.0001) // =======================================================
(PID.TID 0000.0001) // Begin MONITOR dynamic field statistics
(PID.TID 0000.0001) // =======================================================
(PID.TID 0000.0001) %MON time_tsnumber                =                 69130
(PID.TID 0000.0001) %MON time_secondsf                =   3.1108500000000E+07
(PID.TID 0000.0001) %MON dynstat_eta_max              =   3.4578991205672E+03
(PID.TID 0000.0001) %MON dynstat_eta_min              =  -3.7105643617054E+03
(PID.TID 0000.0001) %MON dynstat_eta_mean             =  -9.2538764818638E-13
(PID.TID 0000.0001) %MON dynstat_eta_sd               =   8.3436102459178E+02
(PID.TID 0000.0001) %MON dynstat_eta_del2             =   1.0689099393187E+02
(PID.TID 0000.0001) %MON dynstat_uvel_max             =   7.8459174672227E+01
(PID.TID 0000.0001) %MON dynstat_uvel_min             =  -3.7524886090968E+01
(PID.TID 0000.0001) %MON dynstat_uvel_mean            =   5.3016220321156E+00
(PID.TID 0000.0001) %MON dynstat_uvel_sd              =   1.3833540905360E+01
(PID.TID 0000.0001) %MON dynstat_uvel_del2            =   1.2211966856994E+00
(PID.TID 0000.0001) %MON dynstat_vvel_max             =   5.1361448127775E+01
(PID.TID 0000.0001) %MON dynstat_vvel_min             =  -4.1938816326294E+01
(PID.TID 0000.0001) %MON dynstat_vvel_mean            =  -2.2012316607103E-02
(PID.TID 0000.0001) %MON dynstat_vvel_sd              =   7.4735329914232E+00
(PID.TID 0000.0001) %MON dynstat_vvel_del2            =   8.9357180715145E-01
(PID.TID 0000.0001) %MON dynstat_wvel_max             =   1.4532346817382E+00
(PID.TID 0000.0001) %MON dynstat_wvel_min             =  -2.0395418248914E+00
(PID.TID 0000.0001) %MON dynstat_wvel_mean            =   1.2845732909570E-05
(PID.TID 0000.0001) %MON dynstat_wvel_sd              =   1.3358703235197E-01
(PID.TID 0000.0001) %MON dynstat_wvel_del2            =   3.7677149785016E-02
(PID.TID 0000.0001) %MON dynstat_theta_max            =   4.8948198195044E+02
(PID.TID 0000.0001) %MON dynstat_theta_min            =   2.4129722200992E+02
(PID.TID 0000.0001) %MON dynstat_theta_mean           =   3.3105037124073E+02
(PID.TID 0000.0001) %MON dynstat_theta_sd             =   4.7108537648718E+01
(PID.TID 0000.0001) %MON dynstat_theta_del2           =   6.2935954335629E-01
(PID.TID 0000.0001) %MON dynstat_salt_max             =   1.7912710672272E+01
(PID.TID 0000.0001) %MON dynstat_salt_min             =  -7.3043567408042E-01
(PID.TID 0000.0001) %MON dynstat_salt_mean            =   2.3289688900726E+00
(PID.TID 0000.0001) %MON dynstat_salt_sd              =   3.2794071635698E+00
(PID.TID 0000.0001) %MON dynstat_salt_del2            =   1.0791143139549E-01
(PID.TID 0000.0001) %MON advcfl_uvel_max              =   1.5695676217410E+00
(PID.TID 0000.0001) %MON advcfl_vvel_max              =   7.3916338019506E-02
(PID.TID 0000.0001) %MON advcfl_wvel_max              =   5.2445361211492E-02
(PID.TID 0000.0001) %MON advcfl_W_hf_max              =   1.8355876424022E-01
(PID.TID 0000.0001) %MON pe_b_mean                    =   3.5998230018562E+00
(PID.TID 0000.0001) %MON ke_max                       =   3.1284254554854E+03
(PID.TID 0000.0001) %MON ke_mean                      =   1.3666452485530E+02
(PID.TID 0000.0001) %MON ke_vol                       =   4.9304391457653E+19
(PID.TID 0000.0001) %MON vort_r_min                   =  -1.8764240012945E-04
(PID.TID 0000.0001) %MON vort_r_max                   =   2.1152193162862E-04
(PID.TID 0000.0001) %MON vort_a_mean                  =  -3.9324206311445E-07
(PID.TID 0000.0001) %MON vort_a_sd                    =   8.8977118303196E-05
(PID.TID 0000.0001) %MON vort_p_mean                  =  -3.9906507810973E-07
(PID.TID 0000.0001) %MON vort_p_sd                    =   9.2049116747475E-05
(PID.TID 0000.0001) %MON surfExpan_theta_mean         =  -5.2840935914029E-03
(PID.TID 0000.0001) %MON surfExpan_salt_mean          =   1.2434545670759E-04
(PID.TID 0000.0001) %MON surfExpan_Heat_mean          =  -2.0554069156621E-01
(PID.TID 0000.0001) %MON En_Budget_T2PE_mean          =   1.9022088741439E+00
(PID.TID 0000.0001) // =======================================================
(PID.TID 0000.0001) // End MONITOR dynamic field statistics
(PID.TID 0000.0001) // =======================================================
(PID.TID 0000.0001) %CHECKPOINT     69130 ckptA
(PID.TID 0000.0001)   Seconds in section "ALL                    [THE_MODEL_MAIN]":
(PID.TID 0000.0001)           User time:  17.3973554
(PID.TID 0000.0001)         System time:  0.214968001
(PID.TID 0000.0001)     Wall clock time:  17.8758991
(PID.TID 0000.0001)          No. starts: 1
(PID.TID 0000.0001)           No. stops: 1
(PID.TID 0000.0001)   Seconds in section "INITIALISE_FIXED       [THE_MODEL_MAIN]":
(PID.TID 0000.0001)           User time:  0.277958013
(PID.TID 0000.0001)         System time:  0.0349949989
(PID.TID 0000.0001)     Wall clock time:  0.313040018
(PID.TID 0000.0001)          No. starts: 1
(PID.TID 0000.0001)           No. stops: 1
(PID.TID 0000.0001)   Seconds in section "THE_MAIN_LOOP          [THE_MODEL_MAIN]":
(PID.TID 0000.0001)           User time:  17.0294119
(PID.TID 0000.0001)         System time:  0.156975996
(PID.TID 0000.0001)     Wall clock time:  17.4240329
(PID.TID 0000.0001)          No. starts: 1
(PID.TID 0000.0001)           No. stops: 1
(PID.TID 0000.0001)   Seconds in section "INITIALISE_VARIA    [THE_MAIN_LOOP]":
(PID.TID 0000.0001)           User time:  0.237962991
(PID.TID 0000.0001)         System time:  0.044993002
(PID.TID 0000.0001)     Wall clock time:  0.323718071
(PID.TID 0000.0001)          No. starts: 1
(PID.TID 0000.0001)           No. stops: 1
(PID.TID 0000.0001)   Seconds in section "MONITOR             [THE_MAIN_LOOP]":
(PID.TID 0000.0001)           User time:  0.117982984
(PID.TID 0000.0001)         System time:  0.
(PID.TID 0000.0001)     Wall clock time:  0.117417097
(PID.TID 0000.0001)          No. starts: 1
(PID.TID 0000.0001)           No. stops: 1
(PID.TID 0000.0001)   Seconds in section "DO_THE_MODEL_IO     [THE_MAIN_LOOP]":
(PID.TID 0000.0001)           User time:  0.0609900355
(PID.TID 0000.0001)         System time:  0.0189969987
(PID.TID 0000.0001)     Wall clock time:  0.0801038742
(PID.TID 0000.0001)          No. starts: 1
(PID.TID 0000.0001)           No. stops: 1
(PID.TID 0000.0001)   Seconds in section "MAIN LOOP           [THE_MAIN_LOOP]":
(PID.TID 0000.0001)           User time:  16.6124759
(PID.TID 0000.0001)         System time:  0.0929859951
(PID.TID 0000.0001)     Wall clock time:  16.9026079
(PID.TID 0000.0001)          No. starts: 1
(PID.TID 0000.0001)           No. stops: 1
(PID.TID 0000.0001)   Seconds in section "FORWARD_STEP        [THE_MAIN_LOOP]":
(PID.TID 0000.0001)           User time:  16.6124759
(PID.TID 0000.0001)         System time:  0.0929859951
(PID.TID 0000.0001)     Wall clock time:  16.9022243
(PID.TID 0000.0001)          No. starts: 10
(PID.TID 0000.0001)           No. stops: 10
(PID.TID 0000.0001)   Seconds in section "EXTERNAL_FIELDS_LOAD[FORWARD_STEP]":
(PID.TID 0000.0001)           User time:  0.00999897718
(PID.TID 0000.0001)         System time:  0.00100000203
(PID.TID 0000.0001)     Wall clock time:  0.010831356
(PID.TID 0000.0001)          No. starts: 10
(PID.TID 0000.0001)           No. stops: 10
(PID.TID 0000.0001)   Seconds in section "DO_ATMOSPHERIC_PHYS [FORWARD_STEP]":
(PID.TID 0000.0001)           User time:  2.20066905
(PID.TID 0000.0001)         System time:  0.0219969973
(PID.TID 0000.0001)     Wall clock time:  2.22331858
(PID.TID 0000.0001)          No. starts: 10
(PID.TID 0000.0001)           No. stops: 10
(PID.TID 0000.0001)   Seconds in section "AIM_DO_PHYSICS [DO_ATMOSPHERIC_PHYS]":
(PID.TID 0000.0001)           User time:  2.19767022
(PID.TID 0000.0001)         System time:  0.0219969973
(PID.TID 0000.0001)     Wall clock time:  2.2206068
(PID.TID 0000.0001)          No. starts: 20
(PID.TID 0000.0001)           No. stops: 20
(PID.TID 0000.0001)   Seconds in section "DO_OCEANIC_PHYS     [FORWARD_STEP]":
(PID.TID 0000.0001)           User time:  0.031991899
(PID.TID 0000.0001)         System time:  0.00100000203
(PID.TID 0000.0001)     Wall clock time:  0.0536880493
(PID.TID 0000.0001)          No. starts: 10
(PID.TID 0000.0001)           No. stops: 10
(PID.TID 0000.0001)   Seconds in section "DYNAMICS            [FORWARD_STEP]":
(PID.TID 0000.0001)           User time:  1.92270833
(PID.TID 0000.0001)         System time:  0.00999800861
(PID.TID 0000.0001)     Wall clock time:  1.9936142
(PID.TID 0000.0001)          No. starts: 10
(PID.TID 0000.0001)           No. stops: 10
(PID.TID 0000.0001)   Seconds in section "SOLVE_FOR_PRESSURE  [FORWARD_STEP]":
(PID.TID 0000.0001)           User time:  7.61284447
(PID.TID 0000.0001)         System time:  0.0189960152
(PID.TID 0000.0001)     Wall clock time:  7.66694903
(PID.TID 0000.0001)          No. starts: 10
(PID.TID 0000.0001)           No. stops: 10
(PID.TID 0000.0001)   Seconds in section "MOM_CORRECTION_STEP [FORWARD_STEP]":
(PID.TID 0000.0001)           User time:  1.01984346
(PID.TID 0000.0001)         System time:  0.0039999783
(PID.TID 0000.0001)     Wall clock time:  1.02861214
(PID.TID 0000.0001)          No. starts: 10
(PID.TID 0000.0001)           No. stops: 10
(PID.TID 0000.0001)   Seconds in section "SHAP_FILT_UV       [MOM_CORR_STEP]":
(PID.TID 0000.0001)           User time:  0.645902514
(PID.TID 0000.0001)         System time:  0.00299999118
(PID.TID 0000.0001)     Wall clock time:  0.649201393
(PID.TID 0000.0001)          No. starts: 10
(PID.TID 0000.0001)           No. stops: 10
(PID.TID 0000.0001)   Seconds in section "ZONAL_FILT_UV      [MOM_CORR_STEP]":
(PID.TID 0000.0001)           User time:  0.180969238
(PID.TID 0000.0001)         System time:  0.
(PID.TID 0000.0001)     Wall clock time:  0.180867672
(PID.TID 0000.0001)          No. starts: 10
(PID.TID 0000.0001)           No. stops: 10
(PID.TID 0000.0001)   Seconds in section "UPDATE_ETAH         [FORWARD_STEP]":
(PID.TID 0000.0001)           User time:  0.00500023365
(PID.TID 0000.0001)         System time:  0.
(PID.TID 0000.0001)     Wall clock time:  0.0053691864
(PID.TID 0000.0001)          No. starts: 10
(PID.TID 0000.0001)           No. stops: 10
(PID.TID 0000.0001)   Seconds in section "BLOCKING_EXCHANGES  [FORWARD_STEP]":
(PID.TID 0000.0001)           User time:  0.0359997749
(PID.TID 0000.0001)         System time:  0.00100000203
(PID.TID 0000.0001)     Wall clock time:  0.0359869003
(PID.TID 0000.0001)          No. starts: 20
(PID.TID 0000.0001)           No. stops: 20
(PID.TID 0000.0001)   Seconds in section "THERMODYNAMICS      [FORWARD_STEP]":
(PID.TID 0000.0001)           User time:  1.1848191
(PID.TID 0000.0001)         System time:  0.00499901175
(PID.TID 0000.0001)     Wall clock time:  1.20256805
(PID.TID 0000.0001)          No. starts: 10
(PID.TID 0000.0001)           No. stops: 10
(PID.TID 0000.0001)   Seconds in section "TRC_CORRECTION_STEP [FORWARD_STEP]":
(PID.TID 0000.0001)           User time:  0.852869034
(PID.TID 0000.0001)         System time:  0.00899899006
(PID.TID 0000.0001)     Wall clock time:  0.908132792
(PID.TID 0000.0001)          No. starts: 10
(PID.TID 0000.0001)           No. stops: 10
(PID.TID 0000.0001)   Seconds in section "SHAP_FILT_TS       [TRC_CORR_STEP]":
(PID.TID 0000.0001)           User time:  0.662898779
(PID.TID 0000.0001)         System time:  0.00499999523
(PID.TID 0000.0001)     Wall clock time:  0.686890125
(PID.TID 0000.0001)          No. starts: 10
(PID.TID 0000.0001)           No. stops: 10
(PID.TID 0000.0001)   Seconds in section "ZONAL_FILT_TS      [TRC_CORR_STEP]":
(PID.TID 0000.0001)           User time:  0.158975124
(PID.TID 0000.0001)         System time:  0.00399899483
(PID.TID 0000.0001)     Wall clock time:  0.188574553
(PID.TID 0000.0001)          No. starts: 10
(PID.TID 0000.0001)           No. stops: 10
(PID.TID 0000.0001)   Seconds in section "DO_STATEVARS_TAVE   [FORWARD_STEP]":
(PID.TID 0000.0001)           User time:  0.499920368
(PID.TID 0000.0001)         System time:  0.00100000203
(PID.TID 0000.0001)     Wall clock time:  0.515214443
(PID.TID 0000.0001)          No. starts: 10
(PID.TID 0000.0001)           No. stops: 10
(PID.TID 0000.0001)   Seconds in section "MONITOR             [FORWARD_STEP]":
(PID.TID 0000.0001)           User time:  1.172822
(PID.TID 0000.0001)         System time:  0.
(PID.TID 0000.0001)     Wall clock time:  1.17369986
(PID.TID 0000.0001)          No. starts: 10
(PID.TID 0000.0001)           No. stops: 10
(PID.TID 0000.0001)   Seconds in section "DO_THE_MODEL_IO     [FORWARD_STEP]":
(PID.TID 0000.0001)           User time:  0.0599918365
(PID.TID 0000.0001)         System time:  0.0169969946
(PID.TID 0000.0001)     Wall clock time:  0.0780351162
(PID.TID 0000.0001)          No. starts: 10
(PID.TID 0000.0001)           No. stops: 10
(PID.TID 0000.0001)   Seconds in section "WRITE_CHECKPOINT    [FORWARD_STEP]":
(PID.TID 0000.0001)           User time:  0.
(PID.TID 0000.0001)         System time:  0.
(PID.TID 0000.0001)     Wall clock time:  0.000357627869
(PID.TID 0000.0001)          No. starts: 10
(PID.TID 0000.0001)           No. stops: 10
(PID.TID 0000.0001)   Seconds in section "WRITE_CHECKPOINT       [THE_MODEL_MAIN]":
(PID.TID 0000.0001)           User time:  0.0889854431
(PID.TID 0000.0001)         System time:  0.0229970068
(PID.TID 0000.0001)     Wall clock time:  0.138670921
(PID.TID 0000.0001)          No. starts: 1
(PID.TID 0000.0001)           No. stops: 1
(PID.TID 0000.0001) // ======================================================
(PID.TID 0000.0001) // Tile <-> Tile communication statistics
(PID.TID 0000.0001) // ======================================================
(PID.TID 0000.0001) // o Tile number: 000001
(PID.TID 0000.0001) //         No. X exchanges =              0
(PID.TID 0000.0001) //            Max. X spins =              0
(PID.TID 0000.0001) //            Min. X spins =     1000000000
(PID.TID 0000.0001) //          Total. X spins =              0
(PID.TID 0000.0001) //            Avg. X spins =       0.00E+00
(PID.TID 0000.0001) //         No. Y exchanges =              0
(PID.TID 0000.0001) //            Max. Y spins =              0
(PID.TID 0000.0001) //            Min. Y spins =     1000000000
(PID.TID 0000.0001) //          Total. Y spins =              0
(PID.TID 0000.0001) //            Avg. Y spins =       0.00E+00
(PID.TID 0000.0001) // o Tile number: 000002
(PID.TID 0000.0001) //         No. X exchanges =              0
(PID.TID 0000.0001) //            Max. X spins =              0
(PID.TID 0000.0001) //            Min. X spins =     1000000000
(PID.TID 0000.0001) //          Total. X spins =              0
(PID.TID 0000.0001) //            Avg. X spins =       0.00E+00
(PID.TID 0000.0001) //         No. Y exchanges =              0
(PID.TID 0000.0001) //            Max. Y spins =              0
(PID.TID 0000.0001) //            Min. Y spins =     1000000000
(PID.TID 0000.0001) //          Total. Y spins =              0
(PID.TID 0000.0001) //            Avg. Y spins =       0.00E+00
(PID.TID 0000.0001) // o Thread number: 000001
(PID.TID 0000.0001) //            No. barriers =          23327
(PID.TID 0000.0001) //      Max. barrier spins =              1
(PID.TID 0000.0001) //      Min. barrier spins =              1
(PID.TID 0000.0001) //     Total barrier spins =          23327
(PID.TID 0000.0001) //      Avg. barrier spins =       1.00E+00
