(PID.TID 0000.0001) 
(PID.TID 0000.0001) // ======================================================
(PID.TID 0000.0001) //                      MITgcm UV
(PID.TID 0000.0001) //                      =========
(PID.TID 0000.0001) // ======================================================
(PID.TID 0000.0001) // execution environment starting up...
(PID.TID 0000.0001) 
(PID.TID 0000.0001) // MITgcmUV version:  checkpoint65z
(PID.TID 0000.0001) // Build user:        jmc
(PID.TID 0000.0001) // Build host:        baudelaire
(PID.TID 0000.0001) // Build date:        Wed Oct  5 23:52:07 EDT 2016
(PID.TID 0000.0001) 
(PID.TID 0000.0001) // =======================================================
(PID.TID 0000.0001) // Execution Environment parameter file "eedata"
(PID.TID 0000.0001) // =======================================================
(PID.TID 0000.0001) ># Example "eedata" file
(PID.TID 0000.0001) ># Lines beginning "#" are comments
(PID.TID 0000.0001) ># nTx - No. threads per process in X
(PID.TID 0000.0001) ># nTy - No. threads per process in Y
(PID.TID 0000.0001) > &EEPARMS
(PID.TID 0000.0001) > nTx=1,
(PID.TID 0000.0001) > nTy=1,
(PID.TID 0000.0001) > /
(PID.TID 0000.0001) ># Note: Some systems use & as the
(PID.TID 0000.0001) ># namelist terminator. Other systems
(PID.TID 0000.0001) ># use a / character (as shown here).
(PID.TID 0000.0001) 
(PID.TID 0000.0001) // =======================================================
(PID.TID 0000.0001) // Computational Grid Specification ( see files "SIZE.h" )
(PID.TID 0000.0001) //                                  ( and "eedata"       )
(PID.TID 0000.0001) // =======================================================
(PID.TID 0000.0001)      nPx =    1 ; /* No. processes in X */
(PID.TID 0000.0001)      nPy =    1 ; /* No. processes in Y */
(PID.TID 0000.0001)      nSx =    2 ; /* No. tiles in X per process */
(PID.TID 0000.0001)      nSy =    2 ; /* No. tiles in Y per process */
(PID.TID 0000.0001)      sNx =   45 ; /* Tile size in X */
(PID.TID 0000.0001)      sNy =   20 ; /* Tile size in Y */
(PID.TID 0000.0001)      OLx =    3 ; /* Tile overlap distance in X */
(PID.TID 0000.0001)      OLy =    3 ; /* Tile overlap distance in Y */
(PID.TID 0000.0001)      nTx =    1 ; /* No. threads in X per process */
(PID.TID 0000.0001)      nTy =    1 ; /* No. threads in Y per process */
(PID.TID 0000.0001)       Nr =   20 ; /* No. levels in the vertical   */
(PID.TID 0000.0001)       Nx =   90 ; /* Total domain size in X ( = nPx*nSx*sNx ) */
(PID.TID 0000.0001)       Ny =   40 ; /* Total domain size in Y ( = nPy*nSy*sNy ) */
(PID.TID 0000.0001)   nTiles =    4 ; /* Total no. tiles per process ( = nSx*nSy ) */
(PID.TID 0000.0001)   nProcs =    1 ; /* Total no. processes ( = nPx*nPy ) */
(PID.TID 0000.0001) nThreads =    1 ; /* Total no. threads per process ( = nTx*nTy ) */
(PID.TID 0000.0001) usingMPI =    F ; /* Flag used to control whether MPI is in use */
(PID.TID 0000.0001)                   /*  note: To execute a program with MPI calls */
(PID.TID 0000.0001)                   /*  it must be launched appropriately e.g     */
(PID.TID 0000.0001)                   /*  "mpirun -np 64 ......"                    */
(PID.TID 0000.0001) useCoupler=    F ;/* Flag used to control communications with   */
(PID.TID 0000.0001)                   /*  other model components, through a coupler */
(PID.TID 0000.0001) debugMode =    F ; /* print debug msg. (sequence of S/R calls)  */
(PID.TID 0000.0001) printMapIncludesZeros=    F ; /* print zeros in Std.Output maps */
(PID.TID 0000.0001) maxLengthPrt1D=   65 /* maxLength of 1D array printed to StdOut */
(PID.TID 0000.0001) 
(PID.TID 0000.0001) // ======================================================
(PID.TID 0000.0001) // Mapping of tiles to threads
(PID.TID 0000.0001) // ======================================================
(PID.TID 0000.0001) // -o- Thread   1, tiles (   1:   2,   1:   2)
(PID.TID 0000.0001) 
(PID.TID 0000.0001) // ======================================================
(PID.TID 0000.0001) // Tile <-> Tile connectvity table
(PID.TID 0000.0001) // ======================================================
(PID.TID 0000.0001) // Tile number: 000001 (process no. = 000000)
(PID.TID 0000.0001) //        WEST: Tile = 000002, Process = 000000, Comm = put
(PID.TID 0000.0001) //                bi = 000002, bj = 000001
(PID.TID 0000.0001) //        EAST: Tile = 000002, Process = 000000, Comm = put
(PID.TID 0000.0001) //                bi = 000002, bj = 000001
(PID.TID 0000.0001) //       SOUTH: Tile = 000003, Process = 000000, Comm = put
(PID.TID 0000.0001) //                bi = 000001, bj = 000002
(PID.TID 0000.0001) //       NORTH: Tile = 000003, Process = 000000, Comm = put
(PID.TID 0000.0001) //                bi = 000001, bj = 000002
(PID.TID 0000.0001) // Tile number: 000002 (process no. = 000000)
(PID.TID 0000.0001) //        WEST: Tile = 000001, Process = 000000, Comm = put
(PID.TID 0000.0001) //                bi = 000001, bj = 000001
(PID.TID 0000.0001) //        EAST: Tile = 000001, Process = 000000, Comm = put
(PID.TID 0000.0001) //                bi = 000001, bj = 000001
(PID.TID 0000.0001) //       SOUTH: Tile = 000004, Process = 000000, Comm = put
(PID.TID 0000.0001) //                bi = 000002, bj = 000002
(PID.TID 0000.0001) //       NORTH: Tile = 000004, Process = 000000, Comm = put
(PID.TID 0000.0001) //                bi = 000002, bj = 000002
(PID.TID 0000.0001) // Tile number: 000003 (process no. = 000000)
(PID.TID 0000.0001) //        WEST: Tile = 000004, Process = 000000, Comm = put
(PID.TID 0000.0001) //                bi = 000002, bj = 000002
(PID.TID 0000.0001) //        EAST: Tile = 000004, Process = 000000, Comm = put
(PID.TID 0000.0001) //                bi = 000002, bj = 000002
(PID.TID 0000.0001) //       SOUTH: Tile = 000001, Process = 000000, Comm = put
(PID.TID 0000.0001) //                bi = 000001, bj = 000001
(PID.TID 0000.0001) //       NORTH: Tile = 000001, Process = 000000, Comm = put
(PID.TID 0000.0001) //                bi = 000001, bj = 000001
(PID.TID 0000.0001) // Tile number: 000004 (process no. = 000000)
(PID.TID 0000.0001) //        WEST: Tile = 000003, Process = 000000, Comm = put
(PID.TID 0000.0001) //                bi = 000001, bj = 000002
(PID.TID 0000.0001) //        EAST: Tile = 000003, Process = 000000, Comm = put
(PID.TID 0000.0001) //                bi = 000001, bj = 000002
(PID.TID 0000.0001) //       SOUTH: Tile = 000002, Process = 000000, Comm = put
(PID.TID 0000.0001) //                bi = 000002, bj = 000001
(PID.TID 0000.0001) //       NORTH: Tile = 000002, Process = 000000, Comm = put
(PID.TID 0000.0001) //                bi = 000002, bj = 000001
(PID.TID 0000.0001) 
(PID.TID 0000.0001)  INI_PARMS: opening model parameter file "data"
(PID.TID 0000.0001)  OPEN_COPY_DATA_FILE: opening file data
(PID.TID 0000.0001) // =======================================================
(PID.TID 0000.0001) // Parameter file "data"
(PID.TID 0000.0001) // =======================================================
(PID.TID 0000.0001) ># ====================
(PID.TID 0000.0001) ># | Model parameters |
(PID.TID 0000.0001) ># ====================
(PID.TID 0000.0001) >#
(PID.TID 0000.0001) ># Continuous equation parameters
(PID.TID 0000.0001) > &PARM01
(PID.TID 0000.0001) > tRef= 16.0 , 15.2 , 14.5 , 13.9 , 13.3 ,
(PID.TID 0000.0001) >       12.4 , 11.3 ,  9.9 ,  8.4 ,  6.7 ,
(PID.TID 0000.0001) >        5.2 ,  3.8 ,  2.9 ,  2.3 ,  1.8 ,
(PID.TID 0000.0001) >        1.5 ,  1.1 ,  0.8 ,  0.66,  0.63,
(PID.TID 0000.0001) > sRef= 34.65, 34.75, 34.82, 34.87, 34.90,
(PID.TID 0000.0001) >       34.90, 34.86, 34.78, 34.69, 34.60,
(PID.TID 0000.0001) >       34.58, 34.62, 34.68, 34.72, 34.73,
(PID.TID 0000.0001) >       34.74, 34.73, 34.73, 34.72, 34.72,
(PID.TID 0000.0001) > viscAr=1.E-3,
(PID.TID 0000.0001) > viscAh=5.E5,
(PID.TID 0000.0001) > no_slip_sides=.FALSE.,
(PID.TID 0000.0001) > no_slip_bottom=.TRUE.,
(PID.TID 0000.0001) > diffKhT=1.E3,
(PID.TID 0000.0001) >#- diffKrT unused when compiled with ALLOW_3D_DIFFKR
(PID.TID 0000.0001) >#diffKrT=3.E-5,
(PID.TID 0000.0001) > diffKhS=1.E3,
(PID.TID 0000.0001) > diffKrS=3.E-5,
(PID.TID 0000.0001) > tAlpha=2.E-4,
(PID.TID 0000.0001) > sBeta =7.4E-4,
(PID.TID 0000.0001) > eosType='LINEAR',
(PID.TID 0000.0001) > gravity=9.81,
(PID.TID 0000.0001) > implicitDiffusion=.TRUE.,
(PID.TID 0000.0001) > rigidLid=.FALSE.,
(PID.TID 0000.0001) > implicitFreeSurface=.TRUE.,
(PID.TID 0000.0001) > exactConserv=.TRUE.,
(PID.TID 0000.0001) > useCDscheme=.TRUE.,
(PID.TID 0000.0001) >#-nonlinear free surface
(PID.TID 0000.0001) > hFacInf=0.2,
(PID.TID 0000.0001) > hFacSup=2.0,
(PID.TID 0000.0001) > nonlinFreeSurf=3,
(PID.TID 0000.0001) > select_rStar=1,
(PID.TID 0000.0001) >#
(PID.TID 0000.0001) > staggerTimeStep=.TRUE.,
(PID.TID 0000.0001) > tempAdvScheme=80,
(PID.TID 0000.0001) > saltAdvScheme=81,
(PID.TID 0000.0001) >#-I/O settings
(PID.TID 0000.0001) > readBinaryPrec=32,
(PID.TID 0000.0001) > /
(PID.TID 0000.0001) >
(PID.TID 0000.0001) ># Elliptic solver parameters
(PID.TID 0000.0001) > &PARM02
(PID.TID 0000.0001) > cg2dMaxIters=200,
(PID.TID 0000.0001) >#cg2dTargetResidual=1.E-17,
(PID.TID 0000.0001) > cg2dTargetResWunit=1.E-24,
(PID.TID 0000.0001) > /
(PID.TID 0000.0001) >
(PID.TID 0000.0001) ># Time stepping parameters
(PID.TID 0000.0001) > &PARM03
(PID.TID 0000.0001) ># startTime         = 49766400000.,
(PID.TID 0000.0001) > startTime         = 0.,
(PID.TID 0000.0001) ># endTime           = 49767264000.,
(PID.TID 0000.0001) > endTime           = 345600.,
(PID.TID 0000.0001) > deltaTClock       = 86400.,
(PID.TID 0000.0001) > deltaTFreeSurf    = 86400.,
(PID.TID 0000.0001) > deltaTMom         = 2400.,
(PID.TID 0000.0001) > tauCD             = 321428.,
(PID.TID 0000.0001) > cAdjFreq          = -1.,
(PID.TID 0000.0001) > abEps             = 0.1,
(PID.TID 0000.0001) > pChkptFreq        = 86400000.,
(PID.TID 0000.0001) > chkptFreq         = 86400000.,
(PID.TID 0000.0001) > dumpFreq          = 86400.,
(PID.TID 0000.0001) > monitorFreq       = 43200.,
(PID.TID 0000.0001) > adjMonitorFreq    = 43200.,
(PID.TID 0000.0001) >#
(PID.TID 0000.0001) > tauThetaClimRelax = 2592000.,
(PID.TID 0000.0001) > tauSaltClimRelax  = 2592000.,
(PID.TID 0000.0001) >#tauTr1ClimRelax   = 31104000., <= moved to data.ptracers
(PID.TID 0000.0001) > /
(PID.TID 0000.0001) >
(PID.TID 0000.0001) ># Gridding parameters
(PID.TID 0000.0001) > &PARM04
(PID.TID 0000.0001) > usingSphericalPolarGrid=.TRUE.,
(PID.TID 0000.0001) > delR=  50.,  50.,  55.,  60.,
(PID.TID 0000.0001) >        65.,  70.,  80.,  95.,
(PID.TID 0000.0001) >       120., 155., 200., 260.,
(PID.TID 0000.0001) >       320., 400., 480., 570.,
(PID.TID 0000.0001) >       655., 725., 775., 815.,
(PID.TID 0000.0001) > ygOrigin=-80.,
(PID.TID 0000.0001) > delY=40*4.,
(PID.TID 0000.0001) > delX=90*4.,
(PID.TID 0000.0001) > /
(PID.TID 0000.0001) >
(PID.TID 0000.0001) ># Input datasets
(PID.TID 0000.0001) > &PARM05
(PID.TID 0000.0001) > hydrogThetaFile='theta.bin',
(PID.TID 0000.0001) > hydrogSaltFile='salt.bin',
(PID.TID 0000.0001) > bathyFile='topog.bin',
(PID.TID 0000.0001) > zonalWindFile='windx.bin',
(PID.TID 0000.0001) > meridWindFile='windy.bin',
(PID.TID 0000.0001) > thetaClimFile='SST.bin'
(PID.TID 0000.0001) > saltClimFile='SSS.bin'
(PID.TID 0000.0001) > /
(PID.TID 0000.0001) 
(PID.TID 0000.0001)  INI_PARMS ; starts to read PARM01
(PID.TID 0000.0001)  INI_PARMS ; read PARM01 : OK
(PID.TID 0000.0001)  INI_PARMS ; starts to read PARM02
(PID.TID 0000.0001)  INI_PARMS ; read PARM02 : OK
(PID.TID 0000.0001)  INI_PARMS ; starts to read PARM03
(PID.TID 0000.0001)  INI_PARMS ; read PARM03 : OK
(PID.TID 0000.0001)  INI_PARMS ; starts to read PARM04
(PID.TID 0000.0001)  INI_PARMS ; read PARM04 : OK
(PID.TID 0000.0001)  INI_PARMS ; starts to read PARM05
(PID.TID 0000.0001)  INI_PARMS ; read PARM05 : OK
(PID.TID 0000.0001)  INI_PARMS: finished reading file "data"
(PID.TID 0000.0001)  PACKAGES_BOOT: opening data.pkg
(PID.TID 0000.0001)  OPEN_COPY_DATA_FILE: opening file data.pkg
(PID.TID 0000.0001) // =======================================================
(PID.TID 0000.0001) // Parameter file "data.pkg"
(PID.TID 0000.0001) // =======================================================
(PID.TID 0000.0001) >#
(PID.TID 0000.0001) ># ********
(PID.TID 0000.0001) ># Packages
(PID.TID 0000.0001) ># ********
(PID.TID 0000.0001) > &PACKAGES
(PID.TID 0000.0001) > usePtracers  = .TRUE.,
(PID.TID 0000.0001) > useGMRedi    = .TRUE.,
(PID.TID 0000.0001) > useKPP       = .FALSE.,
(PID.TID 0000.0001) > useGrdchk    = .TRUE.,
(PID.TID 0000.0001) > /
(PID.TID 0000.0001) 
(PID.TID 0000.0001)  PACKAGES_BOOT: finished reading data.pkg
(PID.TID 0000.0001)  PACKAGES_BOOT: On/Off package Summary
 --------  pkgs with a standard "usePKG" On/Off switch in "data.pkg":  --------
 pkg/kpp                  compiled but not used ( useKPP                   = F )
 pkg/gmredi               compiled   and   used ( useGMRedi                = T )
 pkg/autodiff             compiled   and   used ( useAUTODIFF              = T )
 pkg/grdchk               compiled   and   used ( useGrdchk                = T )
 pkg/ctrl                 compiled   and   used ( useCTRL                  = T )
 pkg/sbo                  compiled but not used ( useSBO                   = F )
 pkg/ptracers             compiled   and   used ( usePTRACERS              = T )
 -------- pkgs without standard "usePKG" On/Off switch in "data.pkg":  --------
 pkg/generic_advdiff      compiled   and   used ( useGAD                   = T )
 pkg/mom_common           compiled   and   used ( momStepping              = T )
 pkg/mom_vecinv           compiled but not used ( +vectorInvariantMomentum = F )
 pkg/mom_fluxform         compiled   and   used ( & not vectorInvariantMom = T )
 pkg/cd_code              compiled   and   used ( useCDscheme              = T )
 pkg/monitor              compiled   and   used ( monitorFreq > 0.         = T )
 pkg/timeave              compiled but not used ( taveFreq > 0.            = F )
 pkg/debug                compiled but not used ( debugMode                = F )
 pkg/rw                   compiled   and   used
 pkg/mdsio                compiled   and   used
 pkg/autodiff             compiled   and   used
 pkg/cost                 compiled   and   used
(PID.TID 0000.0001)  PACKAGES_BOOT: End of package Summary
(PID.TID 0000.0001) 
(PID.TID 0000.0001)  GM_READPARMS: opening data.gmredi
(PID.TID 0000.0001)  OPEN_COPY_DATA_FILE: opening file data.gmredi
(PID.TID 0000.0001) // =======================================================
(PID.TID 0000.0001) // Parameter file "data.gmredi"
(PID.TID 0000.0001) // =======================================================
(PID.TID 0000.0001) ># GM+Redi package parameters:
(PID.TID 0000.0001) >#     GM_Small_Number  :: epsilon used in computing the slope
(PID.TID 0000.0001) >#     GM_slopeSqCutoff :: slope^2 cut-off value
(PID.TID 0000.0001) >
(PID.TID 0000.0001) >#-from MOM :
(PID.TID 0000.0001) ># GM_background_K: 	G & Mc.W  diffusion coefficient
(PID.TID 0000.0001) ># GM_maxSlope    :	max slope of isopycnals
(PID.TID 0000.0001) ># GM_Scrit       :	transition for scaling diffusion coefficient
(PID.TID 0000.0001) ># GM_Sd          :	half width scaling for diffusion coefficient
(PID.TID 0000.0001) ># GM_taper_scheme:	slope clipping or one of the tapering schemes
(PID.TID 0000.0001) ># GM_Kmin_horiz  :	horizontal diffusion minimum value
(PID.TID 0000.0001) >
(PID.TID 0000.0001) >#-Option parameters (needs to "define" options in GMREDI_OPTIONS.h")
(PID.TID 0000.0001) ># GM_isopycK     :	isopycnal diffusion coefficient (default=GM_background_K)
(PID.TID 0000.0001) ># GM_AdvForm     :	turn on GM Advective form       (default=Skew flux form)
(PID.TID 0000.0001) >
(PID.TID 0000.0001) > &GM_PARM01
(PID.TID 0000.0001) >  GM_Small_Number  = 1.D-20,
(PID.TID 0000.0001) >  GM_slopeSqCutoff = 1.D+08,
(PID.TID 0000.0001) >  GM_AdvForm         = .TRUE.,
(PID.TID 0000.0001) >  GM_isopycK         = 1.1D+3,
(PID.TID 0000.0001) >  GM_background_K    = 0.9D+3,
(PID.TID 0000.0001) >#  GM_background_K    = 1.D+3,
(PID.TID 0000.0001) >  GM_taper_scheme    = 'dm95',
(PID.TID 0000.0001) >  GM_maxSlope        = 1.D-2,
(PID.TID 0000.0001) >  GM_Kmin_horiz      = 50.,
(PID.TID 0000.0001) >  GM_Scrit           = 4.D-3,
(PID.TID 0000.0001) >  GM_Sd              = 1.D-3,
(PID.TID 0000.0001) >#  GM_Visbeck_alpha   = 1.5D-2,
(PID.TID 0000.0001) >  GM_Visbeck_alpha   = 0.,
(PID.TID 0000.0001) >  GM_Visbeck_length  = 2.D+5,
(PID.TID 0000.0001) >  GM_Visbeck_depth   = 1.D+3,
(PID.TID 0000.0001) >  GM_Visbeck_maxval_K= 2.5D+3,
(PID.TID 0000.0001) > /
(PID.TID 0000.0001) >
(PID.TID 0000.0001) >
(PID.TID 0000.0001) 
(PID.TID 0000.0001)  GM_READPARMS: finished reading data.gmredi
(PID.TID 0000.0001)  PTRACERS_READPARMS: opening data.ptracers
(PID.TID 0000.0001)  OPEN_COPY_DATA_FILE: opening file data.ptracers
(PID.TID 0000.0001) // =======================================================
(PID.TID 0000.0001) // Parameter file "data.ptracers"
(PID.TID 0000.0001) // =======================================================
(PID.TID 0000.0001) ># This set-up makes is supposed to immitate salt. That is, PTRACER(:,:,:,1)
(PID.TID 0000.0001) ># should look exactly like S(:,:,:).
(PID.TID 0000.0001) > &PTRACERS_PARM01
(PID.TID 0000.0001) > PTRACERS_numInUse=1,
(PID.TID 0000.0001) > PTRACERS_advScheme=2,
(PID.TID 0000.0001) > PTRACERS_diffKh=1.E3,
(PID.TID 0000.0001) > PTRACERS_diffKr=3.E-5,
(PID.TID 0000.0001) > PTRACERS_initialFile=' ',
(PID.TID 0000.0001) > PTRACERS_ref=1., 19*0.,
(PID.TID 0000.0001) > tauTr1ClimRelax= 31104000.,
(PID.TID 0000.0001) > /
(PID.TID 0000.0001) 
(PID.TID 0000.0001)  PTRACERS_READPARMS: finished reading data.ptracers
(PID.TID 0000.0001) AUTODIFF_READPARMS: opening data.autodiff
(PID.TID 0000.0001)  OPEN_COPY_DATA_FILE: opening file data.autodiff
(PID.TID 0000.0001) // =======================================================
(PID.TID 0000.0001) // Parameter file "data.autodiff"
(PID.TID 0000.0001) // =======================================================
(PID.TID 0000.0001) ># =========================
(PID.TID 0000.0001) ># pkg AUTODIFF parameters :
(PID.TID 0000.0001) ># =========================
(PID.TID 0000.0001) >#  inAdExact :: get an exact adjoint (no approximation) (def=.True.)
(PID.TID 0000.0001) >#
(PID.TID 0000.0001) > &AUTODIFF_PARM01
(PID.TID 0000.0001) ># inAdExact = .FALSE.,
(PID.TID 0000.0001) > /
(PID.TID 0000.0001) 
(PID.TID 0000.0001) AUTODIFF_READPARMS: finished reading data.autodiff
(PID.TID 0000.0001) // ===================================
(PID.TID 0000.0001) // AUTODIFF parameters :
(PID.TID 0000.0001) // ===================================
(PID.TID 0000.0001) inAdExact = /* get an exact adjoint (no approximation) */
(PID.TID 0000.0001)                   T
(PID.TID 0000.0001)     ;
(PID.TID 0000.0001) useKPPinAdMode = /* use KPP in adjoint mode */
(PID.TID 0000.0001)                   F
(PID.TID 0000.0001)     ;
(PID.TID 0000.0001) useGMRediInAdMode = /* use GMRedi in adjoint mode */
(PID.TID 0000.0001)                   T
(PID.TID 0000.0001)     ;
(PID.TID 0000.0001) useSEAICEinAdMode = /* use SEAICE in adjoint mode */
(PID.TID 0000.0001)                   F
(PID.TID 0000.0001)     ;
(PID.TID 0000.0001) useGGL90inAdMode = /* use GGL90 in adjoint mode */
(PID.TID 0000.0001)                   F
(PID.TID 0000.0001)     ;
(PID.TID 0000.0001) useSALT_PLUMEinAdMode = /* use SALT_PLUME in adjoint mode */
(PID.TID 0000.0001)                   F
(PID.TID 0000.0001)     ;
(PID.TID 0000.0001) dumpAdVarExch = /* control adexch before dumpinp */
(PID.TID 0000.0001)                       2
(PID.TID 0000.0001)     ;
(PID.TID 0000.0001) mon_AdVarExch = /* control adexch before monitor */
(PID.TID 0000.0001)                       2
(PID.TID 0000.0001)     ;
(PID.TID 0000.0001) viscFacInAd = /* viscosity factor for adjoint */
(PID.TID 0000.0001)                 1.000000000000000E+00
(PID.TID 0000.0001)     ;
(PID.TID 0000.0001) 
(PID.TID 0000.0001) OPTIM_READPARMS: opening data.optim
(PID.TID 0000.0001)  OPEN_COPY_DATA_FILE: opening file data.optim
(PID.TID 0000.0001) // =======================================================
(PID.TID 0000.0001) // Parameter file "data.optim"
(PID.TID 0000.0001) // =======================================================
(PID.TID 0000.0001) >#
(PID.TID 0000.0001) ># ********************************
(PID.TID 0000.0001) ># Off-line optimization parameters
(PID.TID 0000.0001) ># ********************************
(PID.TID 0000.0001) > &OPTIM
(PID.TID 0000.0001) > optimcycle=0,
(PID.TID 0000.0001) > /
(PID.TID 0000.0001) 
(PID.TID 0000.0001) OPTIM_READPARMS: finished reading data.optim
(PID.TID 0000.0001) CTRL_READPARMS: opening data.ctrl
(PID.TID 0000.0001)  OPEN_COPY_DATA_FILE: opening file data.ctrl
(PID.TID 0000.0001) // =======================================================
(PID.TID 0000.0001) // Parameter file "data.ctrl"
(PID.TID 0000.0001) // =======================================================
(PID.TID 0000.0001) >#
(PID.TID 0000.0001) >#
(PID.TID 0000.0001) ># *********************
(PID.TID 0000.0001) ># ECCO controlvariables
(PID.TID 0000.0001) ># *********************
(PID.TID 0000.0001) > &CTRL_NML
(PID.TID 0000.0001) > /
(PID.TID 0000.0001) >#
(PID.TID 0000.0001) ># *********************
(PID.TID 0000.0001) ># names for ctrl_pack/unpack
(PID.TID 0000.0001) ># *********************
(PID.TID 0000.0001) > &CTRL_PACKNAMES
(PID.TID 0000.0001) > /
(PID.TID 0000.0001) >#
(PID.TID 0000.0001) ># *********************
(PID.TID 0000.0001) ># names for CTRL_GENARR, CTRL_GENTIM
(PID.TID 0000.0001) ># *********************
(PID.TID 0000.0001) > &CTRL_NML_GENARR
(PID.TID 0000.0001) > xx_genarr3d_file(1)   = 'xx_genarr3d1',
(PID.TID 0000.0001) > xx_genarr3d_weight(1) = 'wunit',
(PID.TID 0000.0001) > /
(PID.TID 0000.0001) >
(PID.TID 0000.0001) 
(PID.TID 0000.0001) CTRL_READPARMS: finished reading data.ctrl
(PID.TID 0000.0001) COST_READPARMS: opening data.cost
(PID.TID 0000.0001)  OPEN_COPY_DATA_FILE: opening file data.cost
(PID.TID 0000.0001) // =======================================================
(PID.TID 0000.0001) // Parameter file "data.cost"
(PID.TID 0000.0001) // =======================================================
(PID.TID 0000.0001) >#
(PID.TID 0000.0001) >#
(PID.TID 0000.0001) ># ******************
(PID.TID 0000.0001) ># ECCO cost function
(PID.TID 0000.0001) ># ******************
(PID.TID 0000.0001) > &COST_NML
(PID.TID 0000.0001) >#
(PID.TID 0000.0001) > mult_tracer  = 1.,
(PID.TID 0000.0001) > mult_test    = 1.,
(PID.TID 0000.0001) > mult_atl     = 1.,
(PID.TID 0000.0001) > /
(PID.TID 0000.0001) 
(PID.TID 0000.0001) COST_READPARMS: finished reading data.cost
(PID.TID 0000.0001) GRDCHK_READPARMS: opening data.grdchk
(PID.TID 0000.0001)  OPEN_COPY_DATA_FILE: opening file data.grdchk
(PID.TID 0000.0001) // =======================================================
(PID.TID 0000.0001) // Parameter file "data.grdchk"
(PID.TID 0000.0001) // =======================================================
(PID.TID 0000.0001) >
(PID.TID 0000.0001) ># *******************
(PID.TID 0000.0001) ># ECCO gradient check
(PID.TID 0000.0001) ># *******************
(PID.TID 0000.0001) > &GRDCHK_NML
(PID.TID 0000.0001) > grdchk_eps       = 1.d-4,
(PID.TID 0000.0001) >### nbeg             = 1,
(PID.TID 0000.0001) > iGloPos          = 15,
(PID.TID 0000.0001) > jGloPos          = 5,
(PID.TID 0000.0001) > kGloPos          = 4,
(PID.TID 0000.0001) > iGloTile         = 1,
(PID.TID 0000.0001) > jgloTile         = 1,
(PID.TID 0000.0001) > nstep            = 1,
(PID.TID 0000.0001) > nend             = 4,
(PID.TID 0000.0001) ># to test xx_tr1 set 17
(PID.TID 0000.0001) >### grdchkvarindex   = 17,
(PID.TID 0000.0001) ># to test xx_genarr3d set 201
(PID.TID 0000.0001) > grdchkvarindex   = 201,
(PID.TID 0000.0001) > /
(PID.TID 0000.0001) 
(PID.TID 0000.0001) GRDCHK_READPARMS: finished reading data.grdchk
(PID.TID 0000.0001) 
(PID.TID 0000.0001) // =======================================================
(PID.TID 0000.0001) // Gradient check configuration  >>> START <<<
(PID.TID 0000.0001) // =======================================================
(PID.TID 0000.0001) 
(PID.TID 0000.0001)   grdchkvarindex :                        201
(PID.TID 0000.0001)   eps:                              0.100E-03
(PID.TID 0000.0001)   First location:                           0
(PID.TID 0000.0001)   Last location:                            4
(PID.TID 0000.0001)   Increment:                                1
(PID.TID 0000.0001)   grdchkWhichProc:                          0
(PID.TID 0000.0001)   iLocTile =       1  ,    jLocTile =       1
(PID.TID 0000.0001) 
(PID.TID 0000.0001) // =======================================================
(PID.TID 0000.0001) // Gradient check configuration  >>> END <<<
(PID.TID 0000.0001) // =======================================================
(PID.TID 0000.0001) 
(PID.TID 0000.0001) SET_PARMS: done
(PID.TID 0000.0001) Enter INI_VERTICAL_GRID: setInterFDr=    T ; setCenterDr=    F
(PID.TID 0000.0001) %MON XC_max                       =   3.5800000000000E+02
(PID.TID 0000.0001) %MON XC_min                       =   2.0000000000000E+00
(PID.TID 0000.0001) %MON XC_mean                      =   1.8000000000000E+02
(PID.TID 0000.0001) %MON XC_sd                        =   1.0391663325314E+02
(PID.TID 0000.0001) %MON XG_max                       =   3.5600000000000E+02
(PID.TID 0000.0001) %MON XG_min                       =   0.0000000000000E+00
(PID.TID 0000.0001) %MON XG_mean                      =   1.7800000000000E+02
(PID.TID 0000.0001) %MON XG_sd                        =   1.0391663325314E+02
(PID.TID 0000.0001) %MON DXC_max                      =   4.4443898815675E+05
(PID.TID 0000.0001) %MON DXC_min                      =   9.2460385861875E+04
(PID.TID 0000.0001) %MON DXC_mean                     =   3.1372497618153E+05
(PID.TID 0000.0001) %MON DXC_sd                       =   1.1216447457560E+05
(PID.TID 0000.0001) %MON DXF_max                      =   4.4443898815675E+05
(PID.TID 0000.0001) %MON DXF_min                      =   9.2460385861875E+04
(PID.TID 0000.0001) %MON DXF_mean                     =   3.1372497618153E+05
(PID.TID 0000.0001) %MON DXF_sd                       =   1.1216447457560E+05
(PID.TID 0000.0001) %MON DXG_max                      =   4.4470989340816E+05
(PID.TID 0000.0001) %MON DXG_min                      =   7.7223062580781E+04
(PID.TID 0000.0001) %MON DXG_mean                     =   3.1353386340261E+05
(PID.TID 0000.0001) %MON DXG_sd                       =   1.1256651772502E+05
(PID.TID 0000.0001) %MON DXV_max                      =   4.4470989340816E+05
(PID.TID 0000.0001) %MON DXV_min                      =   7.7223062580781E+04
(PID.TID 0000.0001) %MON DXV_mean                     =   3.1353386340261E+05
(PID.TID 0000.0001) %MON DXV_sd                       =   1.1256651772502E+05
(PID.TID 0000.0001) %MON YC_max                       =   7.8000000000000E+01
(PID.TID 0000.0001) %MON YC_min                       =  -7.8000000000000E+01
(PID.TID 0000.0001) %MON YC_mean                      =   0.0000000000000E+00
(PID.TID 0000.0001) %MON YC_sd                        =   4.6173585522461E+01
(PID.TID 0000.0001) %MON YG_max                       =   7.6000000000000E+01
(PID.TID 0000.0001) %MON YG_min                       =  -8.0000000000000E+01
(PID.TID 0000.0001) %MON YG_mean                      =  -2.0000000000000E+00
(PID.TID 0000.0001) %MON YG_sd                        =   4.6173585522461E+01
(PID.TID 0000.0001) %MON DYC_max                      =   4.4470989340816E+05
(PID.TID 0000.0001) %MON DYC_min                      =   4.4470989340816E+05
(PID.TID 0000.0001) %MON DYC_mean                     =   4.4470989340816E+05
(PID.TID 0000.0001) %MON DYC_sd                       =   5.2968971431255E-09
(PID.TID 0000.0001) %MON DYF_max                      =   4.4470989340816E+05
(PID.TID 0000.0001) %MON DYF_min                      =   4.4470989340816E+05
(PID.TID 0000.0001) %MON DYF_mean                     =   4.4470989340816E+05
(PID.TID 0000.0001) %MON DYF_sd                       =   5.2968971431255E-09
(PID.TID 0000.0001) %MON DYG_max                      =   4.4470989340816E+05
(PID.TID 0000.0001) %MON DYG_min                      =   4.4470989340816E+05
(PID.TID 0000.0001) %MON DYG_mean                     =   4.4470989340816E+05
(PID.TID 0000.0001) %MON DYG_sd                       =   5.2968971431255E-09
(PID.TID 0000.0001) %MON DYU_max                      =   4.4470989340816E+05
(PID.TID 0000.0001) %MON DYU_min                      =   4.4470989340816E+05
(PID.TID 0000.0001) %MON DYU_mean                     =   4.4470989340816E+05
(PID.TID 0000.0001) %MON DYU_sd                       =   5.2968971431255E-09
(PID.TID 0000.0001) %MON RA_max                       =   1.9760627980089E+11
(PID.TID 0000.0001) %MON RA_min                       =   4.1109698667290E+10
(PID.TID 0000.0001) %MON RA_mean                      =   1.3948826965196E+11
(PID.TID 0000.0001) %MON RA_sd                        =   4.9870522472902E+10
(PID.TID 0000.0001) %MON RAW_max                      =   1.9760627980089E+11
(PID.TID 0000.0001) %MON RAW_min                      =   4.1109698667290E+10
(PID.TID 0000.0001) %MON RAW_mean                     =   1.3948826965196E+11
(PID.TID 0000.0001) %MON RAW_sd                       =   4.9870522472902E+10
(PID.TID 0000.0001) %MON RAS_max                      =   1.9772672958215E+11
(PID.TID 0000.0001) %MON RAS_min                      =   3.4334886267983E+10
(PID.TID 0000.0001) %MON RAS_mean                     =   1.3940329716694E+11
(PID.TID 0000.0001) %MON RAS_sd                       =   5.0049278732353E+10
(PID.TID 0000.0001) %MON RAZ_max                      =   1.9772672958215E+11
(PID.TID 0000.0001) %MON RAZ_min                      =   3.4334886267983E+10
(PID.TID 0000.0001) %MON RAZ_mean                     =   1.3940329716694E+11
(PID.TID 0000.0001) %MON RAZ_sd                       =   5.0049278732353E+10
(PID.TID 0000.0001) %MON AngleCS_max                  =   1.0000000000000E+00
(PID.TID 0000.0001) %MON AngleCS_min                  =   1.0000000000000E+00
(PID.TID 0000.0001) %MON AngleCS_mean                 =   1.0000000000000E+00
(PID.TID 0000.0001) %MON AngleCS_sd                   =   0.0000000000000E+00
(PID.TID 0000.0001) %MON AngleSN_max                  =   0.0000000000000E+00
(PID.TID 0000.0001) %MON AngleSN_min                  =   0.0000000000000E+00
(PID.TID 0000.0001) %MON AngleSN_mean                 =   0.0000000000000E+00
(PID.TID 0000.0001) %MON AngleSN_sd                   =   0.0000000000000E+00
(PID.TID 0000.0001) GAD_INIT_FIXED: GAD_OlMinSize=  1  0  1
(PID.TID 0000.0001) 
(PID.TID 0000.0001) // ===================================
(PID.TID 0000.0001) // GAD parameters :
(PID.TID 0000.0001) // ===================================
(PID.TID 0000.0001) tempAdvScheme =   /* Temp. Horiz.Advection scheme selector */
(PID.TID 0000.0001)                      80
(PID.TID 0000.0001)     ;
(PID.TID 0000.0001) tempVertAdvScheme =   /* Temp. Vert. Advection scheme selector */
(PID.TID 0000.0001)                      80
(PID.TID 0000.0001)     ;
(PID.TID 0000.0001) tempMultiDimAdvec =   /* use Muti-Dim Advec method for Temp */
(PID.TID 0000.0001)                   T
(PID.TID 0000.0001)     ;
(PID.TID 0000.0001) tempSOM_Advection = /* use 2nd Order Moment Advection for Temp */
(PID.TID 0000.0001)                   T
(PID.TID 0000.0001)     ;
(PID.TID 0000.0001) AdamsBashforthGt = /* apply Adams-Bashforth extrapolation on Gt */
(PID.TID 0000.0001)                   F
(PID.TID 0000.0001)     ;
(PID.TID 0000.0001) AdamsBashforth_T = /* apply Adams-Bashforth extrapolation on Temp */
(PID.TID 0000.0001)                   F
(PID.TID 0000.0001)     ;
(PID.TID 0000.0001) saltAdvScheme =   /* Salt. Horiz.advection scheme selector */
(PID.TID 0000.0001)                      81
(PID.TID 0000.0001)     ;
(PID.TID 0000.0001) saltVertAdvScheme =   /* Salt. Vert. Advection scheme selector */
(PID.TID 0000.0001)                      81
(PID.TID 0000.0001)     ;
(PID.TID 0000.0001) saltMultiDimAdvec =   /* use Muti-Dim Advec method for Salt */
(PID.TID 0000.0001)                   T
(PID.TID 0000.0001)     ;
(PID.TID 0000.0001) saltSOM_Advection = /* use 2nd Order Moment Advection for Salt */
(PID.TID 0000.0001)                   T
(PID.TID 0000.0001)     ;
(PID.TID 0000.0001) AdamsBashforthGs = /* apply Adams-Bashforth extrapolation on Gs */
(PID.TID 0000.0001)                   F
(PID.TID 0000.0001)     ;
(PID.TID 0000.0001) AdamsBashforth_S = /* apply Adams-Bashforth extrapolation on Salt */
(PID.TID 0000.0001)                   F
(PID.TID 0000.0001)     ;
(PID.TID 0000.0001) // ===================================
(PID.TID 0000.0001) ctrl-wet 1:    nvarlength =        37994
(PID.TID 0000.0001) ctrl-wet 2: surface wet C =          616
(PID.TID 0000.0001) ctrl-wet 3: surface wet W =          586
(PID.TID 0000.0001) ctrl-wet 4: surface wet S =          557
(PID.TID 0000.0001) ctrl-wet 4a:surface wet V =            0
(PID.TID 0000.0001) ctrl-wet 5: 3D wet points =        10880
(PID.TID 0000.0001) ctrl-wet 6: no recs for i =     1           0
(PID.TID 0000.0001) ctrl-wet 6: no recs for i =     2           0
(PID.TID 0000.0001) ctrl-wet 6: no recs for i =     3           0
(PID.TID 0000.0001) ctrl-wet 6: no recs for i =     4           0
(PID.TID 0000.0001) ctrl-wet 6: no recs for i =     5           0
(PID.TID 0000.0001) ctrl-wet 6: no recs for i =     6           0
(PID.TID 0000.0001) ctrl-wet 6: no recs for i =     7           0
(PID.TID 0000.0001) ctrl-wet 6: no recs for i =     8           0
(PID.TID 0000.0001) ctrl-wet 6: no recs for i =     9           0
(PID.TID 0000.0001) ctrl-wet 6: no recs for i =    10           0
(PID.TID 0000.0001) ctrl-wet 6: no recs for i =    11           0
(PID.TID 0000.0001) ctrl-wet 6: no recs for i =    12           0
(PID.TID 0000.0001) ctrl-wet 6: no recs for i =    13           0
(PID.TID 0000.0001) ctrl-wet 6: no recs for i =    14           0
(PID.TID 0000.0001) ctrl-wet 6: no recs for i =    15           0
(PID.TID 0000.0001) ctrl-wet 6: no recs for i =    16           0
(PID.TID 0000.0001) ctrl-wet 6: no recs for i =    17           0
(PID.TID 0000.0001) ctrl-wet 6: no recs for i =    18           0
(PID.TID 0000.0001) ctrl-wet 6: no recs for i =    19           0
(PID.TID 0000.0001) ctrl-wet 6: no recs for i =    20           0
(PID.TID 0000.0001) ctrl-wet 6: no recs for i =    21           0
(PID.TID 0000.0001) ctrl-wet 6: no recs for i =    22           0
(PID.TID 0000.0001) ctrl-wet 6: no recs for i =    23           0
(PID.TID 0000.0001) ctrl-wet 6: no recs for i =    24           0
(PID.TID 0000.0001) ctrl-wet 6: no recs for i =    25           0
(PID.TID 0000.0001) ctrl-wet 6: no recs for i =    26           0
(PID.TID 0000.0001) ctrl-wet 6: no recs for i =    27           0
(PID.TID 0000.0001) ctrl-wet 6: no recs for i =    28           0
(PID.TID 0000.0001) ctrl-wet 6: no recs for i =    29           0
(PID.TID 0000.0001) ctrl-wet 6: no recs for i =    30           0
(PID.TID 0000.0001) ctrl-wet 6: no recs for i =    31           0
(PID.TID 0000.0001) ctrl-wet 6: no recs for i =    32           0
(PID.TID 0000.0001) ctrl-wet 6: no recs for i =    33           0
(PID.TID 0000.0001) ctrl-wet 6: no recs for i =    34           0
(PID.TID 0000.0001) ctrl-wet 6: no recs for i =    35           0
(PID.TID 0000.0001) ctrl-wet 6: no recs for i =    36           0
(PID.TID 0000.0001) ctrl-wet 6: no recs for i =    37           0
(PID.TID 0000.0001) ctrl-wet 6: no recs for i =    38           0
(PID.TID 0000.0001) ctrl-wet 6: no recs for i =    39           0
(PID.TID 0000.0001) ctrl-wet 6: no recs for i =    40           0
(PID.TID 0000.0001) ctrl-wet 6: no recs for i =    41           0
(PID.TID 0000.0001) ctrl-wet 6: no recs for i =    42           0
(PID.TID 0000.0001) ctrl-wet 6: no recs for i =    43           0
(PID.TID 0000.0001) ctrl-wet 6: no recs for i =    44           0
(PID.TID 0000.0001) ctrl-wet 6: no recs for i =    45           0
(PID.TID 0000.0001) ctrl-wet 6: no recs for i =    46           0
(PID.TID 0000.0001) ctrl-wet 6: no recs for i =    47           0
(PID.TID 0000.0001) ctrl-wet 6: no recs for i =    48           0
(PID.TID 0000.0001) ctrl-wet 6: no recs for i =    49           0
(PID.TID 0000.0001) ctrl-wet 6: no recs for i =    50           0
(PID.TID 0000.0001) ctrl-wet 6: no recs for i =    51           0
(PID.TID 0000.0001) ctrl-wet 6: no recs for i =    52           0
(PID.TID 0000.0001) ctrl-wet 6: no recs for i =    53           0
(PID.TID 0000.0001) ctrl-wet 6: no recs for i =    54           0
(PID.TID 0000.0001) ctrl-wet 6: no recs for i =    55           0
(PID.TID 0000.0001) ctrl-wet 6: no recs for i =    56           0
(PID.TID 0000.0001) ctrl-wet 6: no recs for i =    57           0
(PID.TID 0000.0001) ctrl-wet 6: no recs for i =    58           0
(PID.TID 0000.0001) ctrl-wet 6: no recs for i =    59           0
(PID.TID 0000.0001) ctrl-wet 6: no recs for i =    60           0
(PID.TID 0000.0001) ctrl-wet 6: no recs for i =    61           0
(PID.TID 0000.0001) ctrl-wet 6: no recs for i =    62           0
(PID.TID 0000.0001) ctrl-wet 6: no recs for i =    63           0
(PID.TID 0000.0001) ctrl-wet 6: no recs for i =    64           0
(PID.TID 0000.0001) ctrl-wet 6: no recs for i =    65           0
(PID.TID 0000.0001) ctrl-wet 6: no recs for i =    66           0
(PID.TID 0000.0001) ctrl-wet 6: no recs for i =    67           0
(PID.TID 0000.0001) ctrl-wet 6: no recs for i =    68           0
(PID.TID 0000.0001) ctrl-wet 6: no recs for i =    69           0
(PID.TID 0000.0001) ctrl-wet 6: no recs for i =    70           0
(PID.TID 0000.0001) ctrl-wet 6: no recs for i =    71           0
(PID.TID 0000.0001) ctrl-wet 6: no recs for i =    72           0
(PID.TID 0000.0001) ctrl-wet 6: no recs for i =    73           0
(PID.TID 0000.0001) ctrl-wet 6: no recs for i =    74           0
(PID.TID 0000.0001) ctrl-wet 6: no recs for i =    75           0
(PID.TID 0000.0001) ctrl-wet 6: no recs for i =    76           0
(PID.TID 0000.0001) ctrl-wet 6: no recs for i =    77           0
(PID.TID 0000.0001) ctrl-wet 6: no recs for i =    78           0
(PID.TID 0000.0001) ctrl-wet 6: no recs for i =    79           0
(PID.TID 0000.0001) ctrl-wet 6: no recs for i =    80           0
(PID.TID 0000.0001) ctrl-wet 6: no recs for i =    81           0
(PID.TID 0000.0001) ctrl-wet 6: no recs for i =    82           0
(PID.TID 0000.0001) ctrl-wet 6: no recs for i =    83           0
(PID.TID 0000.0001) ctrl-wet 6: no recs for i =    84           0
(PID.TID 0000.0001) ctrl-wet 6: no recs for i =    85           0
(PID.TID 0000.0001) ctrl-wet 6: no recs for i =    86           0
(PID.TID 0000.0001) ctrl-wet 6: no recs for i =    87           0
(PID.TID 0000.0001) ctrl-wet 6: no recs for i =    88           0
(PID.TID 0000.0001) ctrl-wet 6: no recs for i =    89           0
(PID.TID 0000.0001) ctrl-wet 6: no recs for i =    90           0
(PID.TID 0000.0001) ctrl-wet 6: no recs for i =    91           0
(PID.TID 0000.0001) ctrl-wet 6: no recs for i =    92           0
(PID.TID 0000.0001) ctrl-wet 6: no recs for i =    93           0
(PID.TID 0000.0001) ctrl-wet 6: no recs for i =    94           0
(PID.TID 0000.0001) ctrl-wet 6: no recs for i =    95           0
(PID.TID 0000.0001) ctrl-wet 6: no recs for i =    96           0
(PID.TID 0000.0001) ctrl-wet 6: no recs for i =    97           0
(PID.TID 0000.0001) ctrl-wet 6: no recs for i =    98           0
(PID.TID 0000.0001) ctrl-wet 6: no recs for i =    99           0
(PID.TID 0000.0001) ctrl-wet 6: no recs for i =   100           0
(PID.TID 0000.0001) ctrl-wet 6: no recs for i =   101           0
(PID.TID 0000.0001) ctrl-wet 6: no recs for i =   102           0
(PID.TID 0000.0001) ctrl-wet 6: no recs for i =   103           0
(PID.TID 0000.0001) ctrl-wet 6: no recs for i =   104           0
(PID.TID 0000.0001) ctrl-wet 6: no recs for i =   105           0
(PID.TID 0000.0001) ctrl-wet 6: no recs for i =   106           0
(PID.TID 0000.0001) ctrl-wet 6: no recs for i =   107           0
(PID.TID 0000.0001) ctrl-wet 6: no recs for i =   108           0
(PID.TID 0000.0001) ctrl-wet 6: no recs for i =   109           0
(PID.TID 0000.0001) ctrl-wet 6: no recs for i =   110           0
(PID.TID 0000.0001) ctrl-wet 6: no recs for i =   111           0
(PID.TID 0000.0001) ctrl-wet 6: no recs for i =   112           0
(PID.TID 0000.0001) ctrl-wet 6: no recs for i =   113           0
(PID.TID 0000.0001) ctrl-wet 6: no recs for i =   114           0
(PID.TID 0000.0001) ctrl-wet 6: no recs for i =   115           0
(PID.TID 0000.0001) ctrl-wet 6: no recs for i =   116           0
(PID.TID 0000.0001) ctrl-wet 6: no recs for i =   117           0
(PID.TID 0000.0001) ctrl-wet 6: no recs for i =   118           0
(PID.TID 0000.0001) ctrl-wet 6: no recs for i =   119           0
(PID.TID 0000.0001) ctrl-wet 6: no recs for i =   120           0
(PID.TID 0000.0001) ctrl-wet 6: no recs for i =   121           0
(PID.TID 0000.0001) ctrl-wet 6: no recs for i =   122           0
(PID.TID 0000.0001) ctrl-wet 6: no recs for i =   123           0
(PID.TID 0000.0001) ctrl-wet 6: no recs for i =   124           0
(PID.TID 0000.0001) ctrl-wet 6: no recs for i =   125           0
(PID.TID 0000.0001) ctrl-wet 6: no recs for i =   126           0
(PID.TID 0000.0001) ctrl-wet 6: no recs for i =   127           0
(PID.TID 0000.0001) ctrl-wet 6: no recs for i =   128           0
(PID.TID 0000.0001) ctrl-wet 6: no recs for i =   129           0
(PID.TID 0000.0001) ctrl-wet 6: no recs for i =   130           0
(PID.TID 0000.0001) ctrl-wet 6: no recs for i =   131           0
(PID.TID 0000.0001) ctrl-wet 6: no recs for i =   132           0
(PID.TID 0000.0001) ctrl-wet 6: no recs for i =   133           0
(PID.TID 0000.0001) ctrl-wet 6: no recs for i =   134           0
(PID.TID 0000.0001) ctrl-wet 6: no recs for i =   135           0
(PID.TID 0000.0001) ctrl-wet 6: no recs for i =   136           0
(PID.TID 0000.0001) ctrl-wet 6: no recs for i =   137           0
(PID.TID 0000.0001) ctrl-wet 6: no recs for i =   138           0
(PID.TID 0000.0001) ctrl-wet 6: no recs for i =   139           0
(PID.TID 0000.0001) ctrl-wet 6: no recs for i =   140           0
(PID.TID 0000.0001) ctrl-wet 6: no recs for i =   141           0
(PID.TID 0000.0001) ctrl-wet 6: no recs for i =   142           0
(PID.TID 0000.0001) ctrl-wet 6: no recs for i =   143           0
(PID.TID 0000.0001) ctrl-wet 6: no recs for i =   144           0
(PID.TID 0000.0001) ctrl-wet 6: no recs for i =   145           0
(PID.TID 0000.0001) ctrl-wet 6: no recs for i =   146           0
(PID.TID 0000.0001) ctrl-wet 6: no recs for i =   147           0
(PID.TID 0000.0001) ctrl-wet 6: no recs for i =   148           0
(PID.TID 0000.0001) ctrl-wet 6: no recs for i =   149           0
(PID.TID 0000.0001) ctrl-wet 6: no recs for i =   150           0
(PID.TID 0000.0001) ctrl-wet 6: no recs for i =   151           0
(PID.TID 0000.0001) ctrl-wet 6: no recs for i =   152           0
(PID.TID 0000.0001) ctrl-wet 6: no recs for i =   153           0
(PID.TID 0000.0001) ctrl-wet 6: no recs for i =   154           0
(PID.TID 0000.0001) ctrl-wet 6: no recs for i =   155           0
(PID.TID 0000.0001) ctrl-wet 6: no recs for i =   156           0
(PID.TID 0000.0001) ctrl-wet 6: no recs for i =   157           0
(PID.TID 0000.0001) ctrl-wet 6: no recs for i =   158           0
(PID.TID 0000.0001) ctrl-wet 6: no recs for i =   159           0
(PID.TID 0000.0001) ctrl-wet 6: no recs for i =   160           0
(PID.TID 0000.0001) ctrl-wet 6: no recs for i =   161           0
(PID.TID 0000.0001) ctrl-wet 6: no recs for i =   162           0
(PID.TID 0000.0001) ctrl-wet 6: no recs for i =   163           0
(PID.TID 0000.0001) ctrl-wet 6: no recs for i =   164           0
(PID.TID 0000.0001) ctrl-wet 6: no recs for i =   165           0
(PID.TID 0000.0001) ctrl-wet 6: no recs for i =   166           0
(PID.TID 0000.0001) ctrl-wet 6: no recs for i =   167           0
(PID.TID 0000.0001) ctrl-wet 6: no recs for i =   168           0
(PID.TID 0000.0001) ctrl-wet 6: no recs for i =   169           0
(PID.TID 0000.0001) ctrl-wet 6: no recs for i =   170           0
(PID.TID 0000.0001) ctrl-wet 6: no recs for i =   171           0
(PID.TID 0000.0001) ctrl-wet 6: no recs for i =   172           0
(PID.TID 0000.0001) ctrl-wet 6: no recs for i =   173           0
(PID.TID 0000.0001) ctrl-wet 6: no recs for i =   174           0
(PID.TID 0000.0001) ctrl-wet 6: no recs for i =   175           0
(PID.TID 0000.0001) ctrl-wet 6: no recs for i =   176           0
(PID.TID 0000.0001) ctrl-wet 6: no recs for i =   177           0
(PID.TID 0000.0001) ctrl-wet 6: no recs for i =   178           0
(PID.TID 0000.0001) ctrl-wet 6: no recs for i =   179           0
(PID.TID 0000.0001) ctrl-wet 6: no recs for i =   180           0
(PID.TID 0000.0001) ctrl-wet 6: no recs for i =   181           0
(PID.TID 0000.0001) ctrl-wet 6: no recs for i =   182           0
(PID.TID 0000.0001) ctrl-wet 6: no recs for i =   183           0
(PID.TID 0000.0001) ctrl-wet 6: no recs for i =   184           0
(PID.TID 0000.0001) ctrl-wet 6: no recs for i =   185           0
(PID.TID 0000.0001) ctrl-wet 6: no recs for i =   186           0
(PID.TID 0000.0001) ctrl-wet 6: no recs for i =   187           0
(PID.TID 0000.0001) ctrl-wet 6: no recs for i =   188           0
(PID.TID 0000.0001) ctrl-wet 6: no recs for i =   189           0
(PID.TID 0000.0001) ctrl-wet 6: no recs for i =   190           0
(PID.TID 0000.0001) ctrl-wet 6: no recs for i =   191           0
(PID.TID 0000.0001) ctrl-wet 6: no recs for i =   192           0
(PID.TID 0000.0001) ctrl-wet 6: no recs for i =   193           0
(PID.TID 0000.0001) ctrl-wet 6: no recs for i =   194           0
(PID.TID 0000.0001) ctrl-wet 6: no recs for i =   195           0
(PID.TID 0000.0001) ctrl-wet 6: no recs for i =   196           0
(PID.TID 0000.0001) ctrl-wet 6: no recs for i =   197           0
(PID.TID 0000.0001) ctrl-wet 6: no recs for i =   198           0
(PID.TID 0000.0001) ctrl-wet 6: no recs for i =   199           0
(PID.TID 0000.0001) ctrl-wet 6: no recs for i =   200           0
(PID.TID 0000.0001) ctrl-wet 6: no recs for i =   201           1
(PID.TID 0000.0001) ctrl-wet 6: no recs for i =   202           0
(PID.TID 0000.0001) ctrl-wet 6: no recs for i =   203           0
(PID.TID 0000.0001) ctrl-wet 6: no recs for i =   204           0
(PID.TID 0000.0001) ctrl-wet 6: no recs for i =   205           0
(PID.TID 0000.0001) ctrl-wet 6: no recs for i =   206           0
(PID.TID 0000.0001) ctrl-wet 6: no recs for i =   207           0
(PID.TID 0000.0001) ctrl-wet 6: no recs for i =   208           0
(PID.TID 0000.0001) ctrl-wet 6: no recs for i =   209           0
(PID.TID 0000.0001) ctrl-wet 6: no recs for i =   210           0
(PID.TID 0000.0001) ctrl-wet 6: no recs for i =   211           0
(PID.TID 0000.0001) ctrl-wet 6: no recs for i =   212           0
(PID.TID 0000.0001) ctrl-wet 6: no recs for i =   213           0
(PID.TID 0000.0001) ctrl-wet 6: no recs for i =   214           0
(PID.TID 0000.0001) ctrl-wet 6: no recs for i =   215           0
(PID.TID 0000.0001) ctrl-wet 6: no recs for i =   216           0
(PID.TID 0000.0001) ctrl-wet 6: no recs for i =   217           0
(PID.TID 0000.0001) ctrl-wet 6: no recs for i =   218           0
(PID.TID 0000.0001) ctrl-wet 6: no recs for i =   219           0
(PID.TID 0000.0001) ctrl-wet 6: no recs for i =   220           0
(PID.TID 0000.0001) ctrl-wet 6: no recs for i =   221           0
(PID.TID 0000.0001) ctrl-wet 6: no recs for i =   222           0
(PID.TID 0000.0001) ctrl-wet 6: no recs for i =   223           0
(PID.TID 0000.0001) ctrl-wet 6: no recs for i =   224           0
(PID.TID 0000.0001) ctrl-wet 6: no recs for i =   225           0
(PID.TID 0000.0001) ctrl-wet 6: no recs for i =   226           0
(PID.TID 0000.0001) ctrl-wet 6: no recs for i =   227           0
(PID.TID 0000.0001) ctrl-wet 6: no recs for i =   228           0
(PID.TID 0000.0001) ctrl-wet 6: no recs for i =   229           0
(PID.TID 0000.0001) ctrl-wet 6: no recs for i =   230           0
(PID.TID 0000.0001) ctrl-wet 6: no recs for i =   231           0
(PID.TID 0000.0001) ctrl-wet 6: no recs for i =   232           0
(PID.TID 0000.0001) ctrl-wet 6: no recs for i =   233           0
(PID.TID 0000.0001) ctrl-wet 6: no recs for i =   234           0
(PID.TID 0000.0001) ctrl-wet 6: no recs for i =   235           0
(PID.TID 0000.0001) ctrl-wet 6: no recs for i =   236           0
(PID.TID 0000.0001) ctrl-wet 6: no recs for i =   237           0
(PID.TID 0000.0001) ctrl-wet 6: no recs for i =   238           0
(PID.TID 0000.0001) ctrl-wet 6: no recs for i =   239           0
(PID.TID 0000.0001) ctrl-wet 6: no recs for i =   240           0
(PID.TID 0000.0001) ctrl-wet 6: no recs for i =   241           0
(PID.TID 0000.0001) ctrl-wet 6: no recs for i =   242           0
(PID.TID 0000.0001) ctrl-wet 6: no recs for i =   243           0
(PID.TID 0000.0001) ctrl-wet 6: no recs for i =   244           0
(PID.TID 0000.0001) ctrl-wet 6: no recs for i =   245           0
(PID.TID 0000.0001) ctrl-wet 6: no recs for i =   246           0
(PID.TID 0000.0001) ctrl-wet 6: no recs for i =   247           0
(PID.TID 0000.0001) ctrl-wet 6: no recs for i =   248           0
(PID.TID 0000.0001) ctrl-wet 6: no recs for i =   249           0
(PID.TID 0000.0001) ctrl-wet 6: no recs for i =   250           0
(PID.TID 0000.0001) ctrl-wet 6: no recs for i =   251           0
(PID.TID 0000.0001) ctrl-wet 6: no recs for i =   252           0
(PID.TID 0000.0001) ctrl-wet 6: no recs for i =   253           0
(PID.TID 0000.0001) ctrl-wet 6: no recs for i =   254           0
(PID.TID 0000.0001) ctrl-wet 6: no recs for i =   255           0
(PID.TID 0000.0001) ctrl-wet 6: no recs for i =   256           0
(PID.TID 0000.0001) ctrl-wet 6: no recs for i =   257           0
(PID.TID 0000.0001) ctrl-wet 6: no recs for i =   258           0
(PID.TID 0000.0001) ctrl-wet 6: no recs for i =   259           0
(PID.TID 0000.0001) ctrl-wet 6: no recs for i =   260           0
(PID.TID 0000.0001) ctrl-wet 6: no recs for i =   261           0
(PID.TID 0000.0001) ctrl-wet 6: no recs for i =   262           0
(PID.TID 0000.0001) ctrl-wet 6: no recs for i =   263           0
(PID.TID 0000.0001) ctrl-wet 6: no recs for i =   264           0
(PID.TID 0000.0001) ctrl-wet 6: no recs for i =   265           0
(PID.TID 0000.0001) ctrl-wet 6: no recs for i =   266           0
(PID.TID 0000.0001) ctrl-wet 6: no recs for i =   267           0
(PID.TID 0000.0001) ctrl-wet 6: no recs for i =   268           0
(PID.TID 0000.0001) ctrl-wet 6: no recs for i =   269           0
(PID.TID 0000.0001) ctrl-wet 6: no recs for i =   270           0
(PID.TID 0000.0001) ctrl-wet 6: no recs for i =   271           0
(PID.TID 0000.0001) ctrl-wet 6: no recs for i =   272           0
(PID.TID 0000.0001) ctrl-wet 6: no recs for i =   273           0
(PID.TID 0000.0001) ctrl-wet 6: no recs for i =   274           0
(PID.TID 0000.0001) ctrl-wet 6: no recs for i =   275           0
(PID.TID 0000.0001) ctrl-wet 6: no recs for i =   276           0
(PID.TID 0000.0001) ctrl-wet 6: no recs for i =   277           0
(PID.TID 0000.0001) ctrl-wet 6: no recs for i =   278           0
(PID.TID 0000.0001) ctrl-wet 6: no recs for i =   279           0
(PID.TID 0000.0001) ctrl-wet 6: no recs for i =   280           0
(PID.TID 0000.0001) ctrl-wet 6: no recs for i =   281           0
(PID.TID 0000.0001) ctrl-wet 6: no recs for i =   282           0
(PID.TID 0000.0001) ctrl-wet 6: no recs for i =   283           0
(PID.TID 0000.0001) ctrl-wet 6: no recs for i =   284           0
(PID.TID 0000.0001) ctrl-wet 6: no recs for i =   285           0
(PID.TID 0000.0001) ctrl-wet 6: no recs for i =   286           0
(PID.TID 0000.0001) ctrl-wet 6: no recs for i =   287           0
(PID.TID 0000.0001) ctrl-wet 6: no recs for i =   288           0
(PID.TID 0000.0001) ctrl-wet 6: no recs for i =   289           0
(PID.TID 0000.0001) ctrl-wet 6: no recs for i =   290           0
(PID.TID 0000.0001) ctrl-wet 6: no recs for i =   291           0
(PID.TID 0000.0001) ctrl-wet 6: no recs for i =   292           0
(PID.TID 0000.0001) ctrl-wet 6: no recs for i =   293           0
(PID.TID 0000.0001) ctrl-wet 6: no recs for i =   294           0
(PID.TID 0000.0001) ctrl-wet 6: no recs for i =   295           0
(PID.TID 0000.0001) ctrl-wet 6: no recs for i =   296           0
(PID.TID 0000.0001) ctrl-wet 6: no recs for i =   297           0
(PID.TID 0000.0001) ctrl-wet 6: no recs for i =   298           0
(PID.TID 0000.0001) ctrl-wet 6: no recs for i =   299           0
(PID.TID 0000.0001) ctrl-wet 6: no recs for i =   300           0
(PID.TID 0000.0001) ctrl-wet 6: no recs for i =   301           0
(PID.TID 0000.0001) ctrl-wet 6: no recs for i =   302           0
(PID.TID 0000.0001) ctrl-wet 6: no recs for i =   303           0
(PID.TID 0000.0001) ctrl-wet 6: no recs for i =   304           0
(PID.TID 0000.0001) ctrl-wet 6: no recs for i =   305           0
(PID.TID 0000.0001) ctrl-wet 6: no recs for i =   306           0
(PID.TID 0000.0001) ctrl-wet 6: no recs for i =   307           0
(PID.TID 0000.0001) ctrl-wet 6: no recs for i =   308           0
(PID.TID 0000.0001) ctrl-wet 6: no recs for i =   309           0
(PID.TID 0000.0001) ctrl-wet 6: no recs for i =   310           0
(PID.TID 0000.0001) ctrl-wet 6: no recs for i =   311           0
(PID.TID 0000.0001) ctrl-wet 6: no recs for i =   312           0
(PID.TID 0000.0001) ctrl-wet 6: no recs for i =   313           0
(PID.TID 0000.0001) ctrl-wet 6: no recs for i =   314           0
(PID.TID 0000.0001) ctrl-wet 6: no recs for i =   315           0
(PID.TID 0000.0001) ctrl-wet 6: no recs for i =   316           0
(PID.TID 0000.0001) ctrl-wet 6: no recs for i =   317           0
(PID.TID 0000.0001) ctrl-wet 6: no recs for i =   318           0
(PID.TID 0000.0001) ctrl-wet 6: no recs for i =   319           0
(PID.TID 0000.0001) ctrl-wet 6: no recs for i =   320           0
(PID.TID 0000.0001) ctrl-wet 6: no recs for i =   321           0
(PID.TID 0000.0001) ctrl-wet 6: no recs for i =   322           0
(PID.TID 0000.0001) ctrl-wet 6: no recs for i =   323           0
(PID.TID 0000.0001) ctrl-wet 6: no recs for i =   324           0
(PID.TID 0000.0001) ctrl-wet 6: no recs for i =   325           0
(PID.TID 0000.0001) ctrl-wet 6: no recs for i =   326           0
(PID.TID 0000.0001) ctrl-wet 6: no recs for i =   327           0
(PID.TID 0000.0001) ctrl-wet 6: no recs for i =   328           0
(PID.TID 0000.0001) ctrl-wet 6: no recs for i =   329           0
(PID.TID 0000.0001) ctrl-wet 6: no recs for i =   330           0
(PID.TID 0000.0001) ctrl-wet 6: no recs for i =   331           0
(PID.TID 0000.0001) ctrl-wet 6: no recs for i =   332           0
(PID.TID 0000.0001) ctrl-wet 6: no recs for i =   333           0
(PID.TID 0000.0001) ctrl-wet 6: no recs for i =   334           0
(PID.TID 0000.0001) ctrl-wet 6: no recs for i =   335           0
(PID.TID 0000.0001) ctrl-wet 6: no recs for i =   336           0
(PID.TID 0000.0001) ctrl-wet 6: no recs for i =   337           0
(PID.TID 0000.0001) ctrl-wet 6: no recs for i =   338           0
(PID.TID 0000.0001) ctrl-wet 6: no recs for i =   339           0
(PID.TID 0000.0001) ctrl-wet 6: no recs for i =   340           0
(PID.TID 0000.0001) ctrl-wet 6: no recs for i =   341           0
(PID.TID 0000.0001) ctrl-wet 6: no recs for i =   342           0
(PID.TID 0000.0001) ctrl-wet 6: no recs for i =   343           0
(PID.TID 0000.0001) ctrl-wet 6: no recs for i =   344           0
(PID.TID 0000.0001) ctrl-wet 6: no recs for i =   345           0
(PID.TID 0000.0001) ctrl-wet 6: no recs for i =   346           0
(PID.TID 0000.0001) ctrl-wet 6: no recs for i =   347           0
(PID.TID 0000.0001) ctrl-wet 6: no recs for i =   348           0
(PID.TID 0000.0001) ctrl-wet 6: no recs for i =   349           0
(PID.TID 0000.0001) ctrl-wet 6: no recs for i =   350           0
(PID.TID 0000.0001) ctrl-wet 6: no recs for i =   351           0
(PID.TID 0000.0001) ctrl-wet 6: no recs for i =   352           0
(PID.TID 0000.0001) ctrl-wet 6: no recs for i =   353           0
(PID.TID 0000.0001) ctrl-wet 6: no recs for i =   354           0
(PID.TID 0000.0001) ctrl-wet 6: no recs for i =   355           0
(PID.TID 0000.0001) ctrl-wet 6: no recs for i =   356           0
(PID.TID 0000.0001) ctrl-wet 6: no recs for i =   357           0
(PID.TID 0000.0001) ctrl-wet 6: no recs for i =   358           0
(PID.TID 0000.0001) ctrl-wet 6: no recs for i =   359           0
(PID.TID 0000.0001) ctrl-wet 6: no recs for i =   360           0
(PID.TID 0000.0001) ctrl-wet 6: no recs for i =   361           0
(PID.TID 0000.0001) ctrl-wet 6: no recs for i =   362           0
(PID.TID 0000.0001) ctrl-wet 6: no recs for i =   363           0
(PID.TID 0000.0001) ctrl-wet 6: no recs for i =   364           0
(PID.TID 0000.0001) ctrl-wet 6: no recs for i =   365           0
(PID.TID 0000.0001) ctrl-wet 6: no recs for i =   366           0
(PID.TID 0000.0001) ctrl-wet 6: no recs for i =   367           0
(PID.TID 0000.0001) ctrl-wet 6: no recs for i =   368           0
(PID.TID 0000.0001) ctrl-wet 6: no recs for i =   369           0
(PID.TID 0000.0001) ctrl-wet 6: no recs for i =   370           0
(PID.TID 0000.0001) ctrl-wet 6: no recs for i =   371           0
(PID.TID 0000.0001) ctrl-wet 6: no recs for i =   372           0
(PID.TID 0000.0001) ctrl-wet 6: no recs for i =   373           0
(PID.TID 0000.0001) ctrl-wet 6: no recs for i =   374           0
(PID.TID 0000.0001) ctrl-wet 6: no recs for i =   375           0
(PID.TID 0000.0001) ctrl-wet 6: no recs for i =   376           0
(PID.TID 0000.0001) ctrl-wet 6: no recs for i =   377           0
(PID.TID 0000.0001) ctrl-wet 6: no recs for i =   378           0
(PID.TID 0000.0001) ctrl-wet 6: no recs for i =   379           0
(PID.TID 0000.0001) ctrl-wet 6: no recs for i =   380           0
(PID.TID 0000.0001) ctrl-wet 6: no recs for i =   381           0
(PID.TID 0000.0001) ctrl-wet 6: no recs for i =   382           0
(PID.TID 0000.0001) ctrl-wet 6: no recs for i =   383           0
(PID.TID 0000.0001) ctrl-wet 6: no recs for i =   384           0
(PID.TID 0000.0001) ctrl-wet 6: no recs for i =   385           0
(PID.TID 0000.0001) ctrl-wet 6: no recs for i =   386           0
(PID.TID 0000.0001) ctrl-wet 6: no recs for i =   387           0
(PID.TID 0000.0001) ctrl-wet 6: no recs for i =   388           0
(PID.TID 0000.0001) ctrl-wet 6: no recs for i =   389           0
(PID.TID 0000.0001) ctrl-wet 6: no recs for i =   390           0
(PID.TID 0000.0001) ctrl-wet 6: no recs for i =   391           0
(PID.TID 0000.0001) ctrl-wet 6: no recs for i =   392           0
(PID.TID 0000.0001) ctrl-wet 6: no recs for i =   393           0
(PID.TID 0000.0001) ctrl-wet 6: no recs for i =   394           0
(PID.TID 0000.0001) ctrl-wet 6: no recs for i =   395           0
(PID.TID 0000.0001) ctrl-wet 6: no recs for i =   396           0
(PID.TID 0000.0001) ctrl-wet 6: no recs for i =   397           0
(PID.TID 0000.0001) ctrl-wet 6: no recs for i =   398           0
(PID.TID 0000.0001) ctrl-wet 6: no recs for i =   399           0
(PID.TID 0000.0001) ctrl-wet 6: no recs for i =   400           0
(PID.TID 0000.0001) ctrl-wet 7: flux         21760
(PID.TID 0000.0001) ctrl-wet 8: atmos        21760
(PID.TID 0000.0001) ctrl-wet -------------------------------------------------
(PID.TID 0000.0001) ctrl-wet 13: global nvarlength for Nr =   20       37994
(PID.TID 0000.0001) ctrl-wet -------------------------------------------------
(PID.TID 0000.0001) ctrl-wet 14: global nWet C/S/W/V k=    1        2158        2004        2052           0
(PID.TID 0000.0001) ctrl-wet 14: global nWet C/S/W/V k=    2        2155        2003        2049           0
(PID.TID 0000.0001) ctrl-wet 14: global nWet C/S/W/V k=    3        2154        2002        2048           0
(PID.TID 0000.0001) ctrl-wet 14: global nWet C/S/W/V k=    4        2151        2000        2047           0
(PID.TID 0000.0001) ctrl-wet 14: global nWet C/S/W/V k=    5        2148        1997        2044           0
(PID.TID 0000.0001) ctrl-wet 14: global nWet C/S/W/V k=    6        2143        1993        2040           0
(PID.TID 0000.0001) ctrl-wet 14: global nWet C/S/W/V k=    7        2143        1993        2040           0
(PID.TID 0000.0001) ctrl-wet 14: global nWet C/S/W/V k=    8        2141        1993        2038           0
(PID.TID 0000.0001) ctrl-wet 14: global nWet C/S/W/V k=    9        2139        1991        2036           0
(PID.TID 0000.0001) ctrl-wet 14: global nWet C/S/W/V k=   10        2134        1986        2030           0
(PID.TID 0000.0001) ctrl-wet 14: global nWet C/S/W/V k=   11        2126        1977        2022           0
(PID.TID 0000.0001) ctrl-wet 14: global nWet C/S/W/V k=   12        2108        1961        2003           0
(PID.TID 0000.0001) ctrl-wet 14: global nWet C/S/W/V k=   13        2101        1954        1995           0
(PID.TID 0000.0001) ctrl-wet 14: global nWet C/S/W/V k=   14        2086        1938        1981           0
(PID.TID 0000.0001) ctrl-wet 14: global nWet C/S/W/V k=   15        2054        1903        1946           0
(PID.TID 0000.0001) ctrl-wet 14: global nWet C/S/W/V k=   16        1998        1841        1879           0
(PID.TID 0000.0001) ctrl-wet 14: global nWet C/S/W/V k=   17        1844        1650        1702           0
(PID.TID 0000.0001) ctrl-wet 14: global nWet C/S/W/V k=   18        1180         951         996           0
(PID.TID 0000.0001) ctrl-wet 14: global nWet C/S/W/V k=   19         754         556         602           0
(PID.TID 0000.0001) ctrl-wet 14: global nWet C/S/W/V k=   20         277         168         186           0
(PID.TID 0000.0001) ctrl-wet -------------------------------------------------
(PID.TID 0000.0001) ctrl-wet -------------------------------------------------
(PID.TID 0000.0001) ctrl-wet -------------------------------------------------
(PID.TID 0000.0001) ctrl_init: no. of control variables:            1
(PID.TID 0000.0001) ctrl_init: control vector length:           37994
(PID.TID 0000.0001) 
(PID.TID 0000.0001) // =======================================================
(PID.TID 0000.0001) // control vector configuration  >>> START <<<
(PID.TID 0000.0001) // =======================================================
(PID.TID 0000.0001) 
(PID.TID 0000.0001)  Total number of ocean points per tile:
(PID.TID 0000.0001)  --------------------------------------
(PID.TID 0000.0001)  snx*sny*nr =    18000
(PID.TID 0000.0001) 
(PID.TID 0000.0001)  Number of ocean points per tile:
(PID.TID 0000.0001)  --------------------------------
(PID.TID 0000.0001)  bi,bj,#(c/s/w): 0001 0001 010880 009660 010196
(PID.TID 0000.0001)  bi,bj,#(c/s/w): 0002 0001 012622 011628 012169
(PID.TID 0000.0001)  bi,bj,#(c/s/w): 0001 0002 004933 004598 004381
(PID.TID 0000.0001)  bi,bj,#(c/s/w): 0002 0002 009559 008975 008990
(PID.TID 0000.0001) 
(PID.TID 0000.0001)  Settings of generic controls:
(PID.TID 0000.0001)  -----------------------------
(PID.TID 0000.0001) 
(PID.TID 0000.0001)  ctrlUseGen  =     T /* use generic controls */
(PID.TID 0000.0001)  -> 3d control, genarr3d no.  1 is in use
(PID.TID 0000.0001)       file       = xx_genarr3d1
(PID.TID 0000.0001)       weight     = wunit
(PID.TID 0000.0001) 
(PID.TID 0000.0001) // =======================================================
(PID.TID 0000.0001) // control vector configuration  >>> END <<<
(PID.TID 0000.0001) // =======================================================
(PID.TID 0000.0001) 
(PID.TID 0000.0001) %MON fCori_max                    =   1.4265546244797E-04
(PID.TID 0000.0001) %MON fCori_min                    =  -1.4265546244797E-04
(PID.TID 0000.0001) %MON fCori_mean                   =   4.7801269115805E-19
(PID.TID 0000.0001) %MON fCori_sd                     =   9.6599226301546E-05
(PID.TID 0000.0001) %MON fCoriG_max                   =   1.4151032568025E-04
(PID.TID 0000.0001) %MON fCoriG_min                   =  -1.4362679550910E-04
(PID.TID 0000.0001) %MON fCoriG_mean                  =  -3.5906698877273E-06
(PID.TID 0000.0001) %MON fCoriG_sd                    =   9.6548915696246E-05
(PID.TID 0000.0001) %MON fCoriCos_max                 =   1.4575362704741E-04
(PID.TID 0000.0001) %MON fCoriCos_min                 =   3.0322354601388E-05
(PID.TID 0000.0001) %MON fCoriCos_mean                =   1.0288600773633E-04
(PID.TID 0000.0001) %MON fCoriCos_sd                  =   3.6784304327266E-05
(PID.TID 0000.0001) INI_CG2D: CG2D normalisation factor =  8.8319877372200804E-05
(PID.TID 0000.0001) INI_CG2D: cg2dTolerance = 1.227458930695841E-17 (Area=3.3354908559E+14)
(PID.TID 0000.0001) 
(PID.TID 0000.0001) // =======================================================
(PID.TID 0000.0001) // Model configuration
(PID.TID 0000.0001) // =======================================================
(PID.TID 0000.0001) //
(PID.TID 0000.0001) // "Physical" paramters ( PARM01 in namelist )
(PID.TID 0000.0001) //
(PID.TID 0000.0001) buoyancyRelation = /* Type of relation to get Buoyancy */
(PID.TID 0000.0001)               'OCEANIC'
(PID.TID 0000.0001)     ;
(PID.TID 0000.0001) fluidIsAir   =  /* fluid major constituent is Air */
(PID.TID 0000.0001)                   F
(PID.TID 0000.0001)     ;
(PID.TID 0000.0001) fluidIsWater =  /* fluid major constituent is Water */
(PID.TID 0000.0001)                   T
(PID.TID 0000.0001)     ;
(PID.TID 0000.0001) usingPCoords =  /* use p (or p*) vertical coordinate */
(PID.TID 0000.0001)                   F
(PID.TID 0000.0001)     ;
(PID.TID 0000.0001) usingZCoords =  /* use z (or z*) vertical coordinate */
(PID.TID 0000.0001)                   T
(PID.TID 0000.0001)     ;
(PID.TID 0000.0001) tRef =   /* Reference temperature profile ( oC or K ) */
(PID.TID 0000.0001)                 1.600000000000000E+01,      /* K =  1 */
(PID.TID 0000.0001)                 1.520000000000000E+01,      /* K =  2 */
(PID.TID 0000.0001)                 1.450000000000000E+01,      /* K =  3 */
(PID.TID 0000.0001)                 1.390000000000000E+01,      /* K =  4 */
(PID.TID 0000.0001)                 1.330000000000000E+01,      /* K =  5 */
(PID.TID 0000.0001)                 1.240000000000000E+01,      /* K =  6 */
(PID.TID 0000.0001)                 1.130000000000000E+01,      /* K =  7 */
(PID.TID 0000.0001)                 9.900000000000000E+00,      /* K =  8 */
(PID.TID 0000.0001)                 8.400000000000000E+00,      /* K =  9 */
(PID.TID 0000.0001)                 6.700000000000000E+00,      /* K = 10 */
(PID.TID 0000.0001)                 5.200000000000000E+00,      /* K = 11 */
(PID.TID 0000.0001)                 3.800000000000000E+00,      /* K = 12 */
(PID.TID 0000.0001)                 2.900000000000000E+00,      /* K = 13 */
(PID.TID 0000.0001)                 2.300000000000000E+00,      /* K = 14 */
(PID.TID 0000.0001)                 1.800000000000000E+00,      /* K = 15 */
(PID.TID 0000.0001)                 1.500000000000000E+00,      /* K = 16 */
(PID.TID 0000.0001)                 1.100000000000000E+00,      /* K = 17 */
(PID.TID 0000.0001)                 8.000000000000000E-01,      /* K = 18 */
(PID.TID 0000.0001)                 6.600000000000000E-01,      /* K = 19 */
(PID.TID 0000.0001)                 6.300000000000000E-01       /* K = 20 */
(PID.TID 0000.0001)     ;
(PID.TID 0000.0001) sRef =   /* Reference salinity profile ( psu ) */
(PID.TID 0000.0001)                 3.465000000000000E+01,      /* K =  1 */
(PID.TID 0000.0001)                 3.475000000000000E+01,      /* K =  2 */
(PID.TID 0000.0001)                 3.482000000000000E+01,      /* K =  3 */
(PID.TID 0000.0001)                 3.487000000000000E+01,      /* K =  4 */
(PID.TID 0000.0001)     2 @  3.490000000000000E+01,             /* K =  5:  6 */
(PID.TID 0000.0001)                 3.486000000000000E+01,      /* K =  7 */
(PID.TID 0000.0001)                 3.478000000000000E+01,      /* K =  8 */
(PID.TID 0000.0001)                 3.469000000000000E+01,      /* K =  9 */
(PID.TID 0000.0001)                 3.460000000000000E+01,      /* K = 10 */
(PID.TID 0000.0001)                 3.458000000000000E+01,      /* K = 11 */
(PID.TID 0000.0001)                 3.462000000000000E+01,      /* K = 12 */
(PID.TID 0000.0001)                 3.468000000000000E+01,      /* K = 13 */
(PID.TID 0000.0001)                 3.472000000000000E+01,      /* K = 14 */
(PID.TID 0000.0001)                 3.473000000000000E+01,      /* K = 15 */
(PID.TID 0000.0001)                 3.474000000000000E+01,      /* K = 16 */
(PID.TID 0000.0001)     2 @  3.473000000000000E+01,             /* K = 17: 18 */
(PID.TID 0000.0001)     2 @  3.472000000000000E+01              /* K = 19: 20 */
(PID.TID 0000.0001)     ;
(PID.TID 0000.0001) useStrainTensionVisc= /* Use StrainTension Form of Viscous Operator */
(PID.TID 0000.0001)                   F
(PID.TID 0000.0001)     ;
(PID.TID 0000.0001) useVariableVisc = /* Use variable horizontal viscosity */
(PID.TID 0000.0001)                   F
(PID.TID 0000.0001)     ;
(PID.TID 0000.0001) useHarmonicVisc = /* Use harmonic horizontal viscosity */
(PID.TID 0000.0001)                   T
(PID.TID 0000.0001)     ;
(PID.TID 0000.0001) useBiharmonicVisc= /* Use biharmonic horiz.  viscosity */
(PID.TID 0000.0001)                   F
(PID.TID 0000.0001)     ;
(PID.TID 0000.0001) useSmag3D = /* Use isotropic 3-D Smagorinsky viscosity */
(PID.TID 0000.0001)                   F
(PID.TID 0000.0001)     ;
(PID.TID 0000.0001) viscAh  =   /* Lateral harmonic viscosity ( m^2/s ) */
(PID.TID 0000.0001)                 5.000000000000000E+05
(PID.TID 0000.0001)     ;
(PID.TID 0000.0001) viscA4  =   /* Lateral biharmonic viscosity ( m^4/s ) */
(PID.TID 0000.0001)                 0.000000000000000E+00
(PID.TID 0000.0001)     ;
(PID.TID 0000.0001) no_slip_sides =  /* Viscous BCs: No-slip sides */
(PID.TID 0000.0001)                   F
(PID.TID 0000.0001)     ;
(PID.TID 0000.0001) sideDragFactor = /* side-drag scaling factor (non-dim) */
(PID.TID 0000.0001)                 2.000000000000000E+00
(PID.TID 0000.0001)     ;
(PID.TID 0000.0001) viscArNr = /* vertical profile of vertical viscosity ( m^2/s )*/
(PID.TID 0000.0001)    20 @  1.000000000000000E-03              /* K =  1: 20 */
(PID.TID 0000.0001)     ;
(PID.TID 0000.0001) no_slip_bottom =  /* Viscous BCs: No-slip bottom */
(PID.TID 0000.0001)                   T
(PID.TID 0000.0001)     ;
(PID.TID 0000.0001) bottomVisc_pCell = /* Partial-cell in bottom Visc. BC */
(PID.TID 0000.0001)                   F
(PID.TID 0000.0001)     ;
(PID.TID 0000.0001) bottomDragLinear = /* linear bottom-drag coefficient ( m/s ) */
(PID.TID 0000.0001)                 0.000000000000000E+00
(PID.TID 0000.0001)     ;
(PID.TID 0000.0001) bottomDragQuadratic = /* quadratic bottom-drag coefficient (-) */
(PID.TID 0000.0001)                 0.000000000000000E+00
(PID.TID 0000.0001)     ;
(PID.TID 0000.0001) selectBotDragQuadr = /* select quadratic bottom drag options */
(PID.TID 0000.0001)                      -1
(PID.TID 0000.0001)     ;
(PID.TID 0000.0001) diffKhT =   /* Laplacian diffusion of heat laterally ( m^2/s ) */
(PID.TID 0000.0001)                 1.000000000000000E+03
(PID.TID 0000.0001)     ;
(PID.TID 0000.0001) diffK4T =   /* Biharmonic diffusion of heat laterally ( m^4/s ) */
(PID.TID 0000.0001)                 0.000000000000000E+00
(PID.TID 0000.0001)     ;
(PID.TID 0000.0001) diffKhS =   /* Laplacian diffusion of salt laterally ( m^2/s ) */
(PID.TID 0000.0001)                 1.000000000000000E+03
(PID.TID 0000.0001)     ;
(PID.TID 0000.0001) diffK4S =   /* Biharmonic diffusion of salt laterally ( m^4/s ) */
(PID.TID 0000.0001)                 0.000000000000000E+00
(PID.TID 0000.0001)     ;
(PID.TID 0000.0001) diffKrNrT = /* vertical profile of vertical diffusion of Temp ( m^2/s )*/
(PID.TID 0000.0001)    20 @  0.000000000000000E+00              /* K =  1: 20 */
(PID.TID 0000.0001)     ;
(PID.TID 0000.0001) diffKrNrS = /* vertical profile of vertical diffusion of Salt ( m^2/s )*/
(PID.TID 0000.0001)    20 @  3.000000000000000E-05              /* K =  1: 20 */
(PID.TID 0000.0001)     ;
(PID.TID 0000.0001) diffKrBL79surf = /* Surface diffusion for Bryan and Lewis 79 ( m^2/s ) */
(PID.TID 0000.0001)                 0.000000000000000E+00
(PID.TID 0000.0001)     ;
(PID.TID 0000.0001) diffKrBL79deep = /* Deep diffusion for Bryan and Lewis 1979 ( m^2/s ) */
(PID.TID 0000.0001)                 0.000000000000000E+00
(PID.TID 0000.0001)     ;
(PID.TID 0000.0001) diffKrBL79scl = /* Depth scale for Bryan and Lewis 1979 ( m ) */
(PID.TID 0000.0001)                 2.000000000000000E+02
(PID.TID 0000.0001)     ;
(PID.TID 0000.0001) diffKrBL79Ho = /* Turning depth for Bryan and Lewis 1979 ( m ) */
(PID.TID 0000.0001)                -2.000000000000000E+03
(PID.TID 0000.0001)     ;
(PID.TID 0000.0001) ivdc_kappa = /* Implicit Vertical Diffusivity for Convection ( m^2/s) */
(PID.TID 0000.0001)                 0.000000000000000E+00
(PID.TID 0000.0001)     ;
(PID.TID 0000.0001) hMixCriteria=  /* Criteria for mixed-layer diagnostic */
(PID.TID 0000.0001)                -8.000000000000000E-01
(PID.TID 0000.0001)     ;
(PID.TID 0000.0001) dRhoSmall =  /* Parameter for mixed-layer diagnostic */
(PID.TID 0000.0001)                 1.000000000000000E-06
(PID.TID 0000.0001)     ;
(PID.TID 0000.0001) hMixSmooth=  /* Smoothing parameter for mixed-layer diagnostic */
(PID.TID 0000.0001)                 0.000000000000000E+00
(PID.TID 0000.0001)     ;
(PID.TID 0000.0001) eosType =  /* Type of Equation of State */
(PID.TID 0000.0001)               'LINEAR'
(PID.TID 0000.0001)     ;
(PID.TID 0000.0001) tAlpha = /* Linear EOS thermal expansion coefficient ( 1/oC ) */
(PID.TID 0000.0001)                 2.000000000000000E-04
(PID.TID 0000.0001)     ;
(PID.TID 0000.0001) sBeta  = /* Linear EOS haline contraction coefficient ( 1/psu ) */
(PID.TID 0000.0001)                 7.400000000000000E-04
(PID.TID 0000.0001)     ;
(PID.TID 0000.0001) rhoNil    = /* Reference density for Linear EOS ( kg/m^3 ) */
(PID.TID 0000.0001)                 9.998000000000000E+02
(PID.TID 0000.0001)     ;
(PID.TID 0000.0001) selectP_inEOS_Zc = /* select pressure to use in EOS (0,1,2,3) */
(PID.TID 0000.0001)                       0
(PID.TID 0000.0001)     0= -g*rhoConst*z ; 1= pRef (from tRef,sRef); 2= Hyd P ; 3= Hyd+NH P
(PID.TID 0000.0001)     ;
(PID.TID 0000.0001) HeatCapacity_Cp =  /* Specific heat capacity ( J/kg/K ) */
(PID.TID 0000.0001)                 3.994000000000000E+03
(PID.TID 0000.0001)     ;
(PID.TID 0000.0001) celsius2K = /* 0 degree Celsius converted to Kelvin ( K ) */
(PID.TID 0000.0001)                 2.731500000000000E+02
(PID.TID 0000.0001)     ;
(PID.TID 0000.0001) rhoConst  = /* Reference density (Boussinesq)  ( kg/m^3 ) */
(PID.TID 0000.0001)                 9.998000000000000E+02
(PID.TID 0000.0001)     ;
(PID.TID 0000.0001) rhoFacC = /* normalized Reference density @ cell-Center (-) */
(PID.TID 0000.0001)    20 @  1.000000000000000E+00              /* K =  1: 20 */
(PID.TID 0000.0001)     ;
(PID.TID 0000.0001) rhoFacF = /* normalized Reference density @ W-Interface (-) */
(PID.TID 0000.0001)    21 @  1.000000000000000E+00              /* K =  1: 21 */
(PID.TID 0000.0001)     ;
(PID.TID 0000.0001) rhoConstFresh = /* Fresh-water reference density ( kg/m^3 ) */
(PID.TID 0000.0001)                 9.998000000000000E+02
(PID.TID 0000.0001)     ;
(PID.TID 0000.0001) gravity =   /* Gravitational acceleration ( m/s^2 ) */
(PID.TID 0000.0001)                 9.810000000000000E+00
(PID.TID 0000.0001)     ;
(PID.TID 0000.0001) gBaro =   /* Barotropic gravity ( m/s^2 ) */
(PID.TID 0000.0001)                 9.810000000000000E+00
(PID.TID 0000.0001)     ;
(PID.TID 0000.0001) gravFacC = /* gravity factor (vs surf.) @ cell-Center (-) */
(PID.TID 0000.0001)    20 @  1.000000000000000E+00              /* K =  1: 20 */
(PID.TID 0000.0001)     ;
(PID.TID 0000.0001) gravFacF = /* gravity factor (vs surf.) @ W-Interface (-) */
(PID.TID 0000.0001)    21 @  1.000000000000000E+00              /* K =  1: 21 */
(PID.TID 0000.0001)     ;
(PID.TID 0000.0001) rotationPeriod =   /* Rotation Period ( s ) */
(PID.TID 0000.0001)                 8.616400000000000E+04
(PID.TID 0000.0001)     ;
(PID.TID 0000.0001) omega =   /* Angular velocity ( rad/s ) */
(PID.TID 0000.0001)                 7.292123516990375E-05
(PID.TID 0000.0001)     ;
(PID.TID 0000.0001) f0 =   /* Reference coriolis parameter ( 1/s ) */
(PID.TID 0000.0001)                 1.000000000000000E-04
(PID.TID 0000.0001)     ;
(PID.TID 0000.0001) beta =   /* Beta ( 1/(m.s) ) */
(PID.TID 0000.0001)                 9.999999999999999E-12
(PID.TID 0000.0001)     ;
(PID.TID 0000.0001) fPrime =   /* Second coriolis parameter ( 1/s ) */
(PID.TID 0000.0001)                 0.000000000000000E+00
(PID.TID 0000.0001)     ;
(PID.TID 0000.0001) rigidLid =   /* Rigid lid on/off flag */
(PID.TID 0000.0001)                   F
(PID.TID 0000.0001)     ;
(PID.TID 0000.0001) implicitFreeSurface =   /* Implicit free surface on/off flag */
(PID.TID 0000.0001)                   T
(PID.TID 0000.0001)     ;
(PID.TID 0000.0001) freeSurfFac =   /* Implicit free surface factor */
(PID.TID 0000.0001)                 1.000000000000000E+00
(PID.TID 0000.0001)     ;
(PID.TID 0000.0001) implicSurfPress =  /* Surface Pressure implicit factor (0-1)*/
(PID.TID 0000.0001)                 1.000000000000000E+00
(PID.TID 0000.0001)     ;
(PID.TID 0000.0001) implicDiv2Dflow =  /* Barot. Flow Div. implicit factor (0-1)*/
(PID.TID 0000.0001)                 1.000000000000000E+00
(PID.TID 0000.0001)     ;
(PID.TID 0000.0001) uniformLin_PhiSurf = /* use uniform Bo_surf on/off flag*/
(PID.TID 0000.0001)                   T
(PID.TID 0000.0001)     ;
(PID.TID 0000.0001) uniformFreeSurfLev = /* free-surface level-index is uniform */
(PID.TID 0000.0001)                   T
(PID.TID 0000.0001)     ;
(PID.TID 0000.0001) hFacMin =   /* minimum partial cell factor (hFac) */
(PID.TID 0000.0001)                 1.000000000000000E+00
(PID.TID 0000.0001)     ;
(PID.TID 0000.0001) hFacMinDr = /* minimum partial cell thickness ( m) */
(PID.TID 0000.0001)                 0.000000000000000E+00
(PID.TID 0000.0001)     ;
(PID.TID 0000.0001) exactConserv =  /* Exact Volume Conservation on/off flag*/
(PID.TID 0000.0001)                   T
(PID.TID 0000.0001)     ;
(PID.TID 0000.0001) linFSConserveTr = /* Tracer correction for Lin Free Surface on/off flag*/
(PID.TID 0000.0001)                   F
(PID.TID 0000.0001)     ;
(PID.TID 0000.0001) nonlinFreeSurf = /* Non-linear Free Surf. options (-1,0,1,2,3)*/
(PID.TID 0000.0001)                       3
(PID.TID 0000.0001)      -1,0= Off ; 1,2,3= On, 2=+rescale gU,gV, 3=+update cg2d solv.
(PID.TID 0000.0001)     ;
(PID.TID 0000.0001) hFacInf =   /* lower threshold for hFac (nonlinFreeSurf only)*/
(PID.TID 0000.0001)                 2.000000000000000E-01
(PID.TID 0000.0001)     ;
(PID.TID 0000.0001) hFacSup =   /* upper threshold for hFac (nonlinFreeSurf only)*/
(PID.TID 0000.0001)                 2.000000000000000E+00
(PID.TID 0000.0001)     ;
(PID.TID 0000.0001) select_rStar = /* r* Vertical coord. options (=0 r coord.; >0 uses r*)*/
(PID.TID 0000.0001)                       1
(PID.TID 0000.0001)     ;
(PID.TID 0000.0001) useRealFreshWaterFlux = /* Real Fresh Water Flux on/off flag*/
(PID.TID 0000.0001)                   F
(PID.TID 0000.0001)     ;
(PID.TID 0000.0001) temp_EvPrRn = /* Temp. of Evap/Prec/R (UNSET=use local T)(oC)*/
(PID.TID 0000.0001)                 1.234567000000000E+05
(PID.TID 0000.0001)     ;
(PID.TID 0000.0001) salt_EvPrRn = /* Salin. of Evap/Prec/R (UNSET=use local S)(psu)*/
(PID.TID 0000.0001)                 0.000000000000000E+00
(PID.TID 0000.0001)     ;
(PID.TID 0000.0001) selectAddFluid = /* option for mass source/sink of fluid (=0: off) */
(PID.TID 0000.0001)                       0
(PID.TID 0000.0001)     ;
(PID.TID 0000.0001) temp_addMass = /* Temp. of addMass array (UNSET=use local T)(oC)*/
(PID.TID 0000.0001)                 1.234567000000000E+05
(PID.TID 0000.0001)     ;
(PID.TID 0000.0001) salt_addMass = /* Salin. of addMass array (UNSET=use local S)(psu)*/
(PID.TID 0000.0001)                 0.000000000000000E+00
(PID.TID 0000.0001)     ;
(PID.TID 0000.0001) convertFW2Salt = /* convert F.W. Flux to Salt Flux (-1=use local S)(psu)*/
(PID.TID 0000.0001)                 3.500000000000000E+01
(PID.TID 0000.0001)     ;
(PID.TID 0000.0001) use3Dsolver = /* use 3-D pressure solver on/off flag */
(PID.TID 0000.0001)                   F
(PID.TID 0000.0001)     ;
(PID.TID 0000.0001) nonHydrostatic =  /* Non-Hydrostatic on/off flag */
(PID.TID 0000.0001)                   F
(PID.TID 0000.0001)     ;
(PID.TID 0000.0001) nh_Am2 = /* Non-Hydrostatic terms scaling factor */
(PID.TID 0000.0001)                 1.000000000000000E+00
(PID.TID 0000.0001)     ;
(PID.TID 0000.0001) implicitNHPress = /* Non-Hyd Pressure implicit factor (0-1)*/
(PID.TID 0000.0001)                 1.000000000000000E+00
(PID.TID 0000.0001)     ;
(PID.TID 0000.0001) selectNHfreeSurf = /* Non-Hyd (free-)Surface option */
(PID.TID 0000.0001)                       0
(PID.TID 0000.0001)     ;
(PID.TID 0000.0001) quasiHydrostatic = /* Quasi-Hydrostatic on/off flag */
(PID.TID 0000.0001)                   F
(PID.TID 0000.0001)     ;
(PID.TID 0000.0001) calc_wVelocity = /* vertical velocity calculation on/off flag */
(PID.TID 0000.0001)                   T
(PID.TID 0000.0001)     ;
(PID.TID 0000.0001) momStepping =  /* Momentum equation on/off flag */
(PID.TID 0000.0001)                   T
(PID.TID 0000.0001)     ;
(PID.TID 0000.0001) vectorInvariantMomentum= /* Vector-Invariant Momentum on/off */
(PID.TID 0000.0001)                   F
(PID.TID 0000.0001)     ;
(PID.TID 0000.0001) momAdvection =  /* Momentum advection on/off flag */
(PID.TID 0000.0001)                   T
(PID.TID 0000.0001)     ;
(PID.TID 0000.0001) momViscosity =  /* Momentum viscosity on/off flag */
(PID.TID 0000.0001)                   T
(PID.TID 0000.0001)     ;
(PID.TID 0000.0001) momImplVertAdv= /* Momentum implicit vert. advection on/off*/
(PID.TID 0000.0001)                   F
(PID.TID 0000.0001)     ;
(PID.TID 0000.0001) implicitViscosity = /* Implicit viscosity on/off flag */
(PID.TID 0000.0001)                   F
(PID.TID 0000.0001)     ;
(PID.TID 0000.0001) implBottomFriction= /* Implicit bottom friction on/off flag */
(PID.TID 0000.0001)                   F
(PID.TID 0000.0001)     ;
(PID.TID 0000.0001) metricTerms =  /* metric-Terms on/off flag */
(PID.TID 0000.0001)                   T
(PID.TID 0000.0001)     ;
(PID.TID 0000.0001) useNHMTerms = /* Non-Hydrostatic Metric-Terms on/off */
(PID.TID 0000.0001)                   F
(PID.TID 0000.0001)     ;
(PID.TID 0000.0001) selectCoriMap = /* Coriolis Map options (0,1,2,3)*/
(PID.TID 0000.0001)                       2
(PID.TID 0000.0001)     0= f-Plane ; 1= Beta-Plane ; 2= Spherical ; 3= read from file
(PID.TID 0000.0001)     ;
(PID.TID 0000.0001) use3dCoriolis = /* 3-D Coriolis on/off flag */
(PID.TID 0000.0001)                   F
(PID.TID 0000.0001)     ;
(PID.TID 0000.0001) useCoriolis =  /* Coriolis on/off flag */
(PID.TID 0000.0001)                   T
(PID.TID 0000.0001)     ;
(PID.TID 0000.0001) useCDscheme =  /* CD scheme on/off flag */
(PID.TID 0000.0001)                   T
(PID.TID 0000.0001)     ;
(PID.TID 0000.0001) useEnergyConservingCoriolis= /* Flx-Form Coriolis scheme flag */
(PID.TID 0000.0001)                   F
(PID.TID 0000.0001)     ;
(PID.TID 0000.0001) useJamartWetPoints= /* Coriolis WetPoints method flag */
(PID.TID 0000.0001)                   F
(PID.TID 0000.0001)     ;
(PID.TID 0000.0001) useJamartMomAdv= /* V.I Non-linear terms Jamart flag */
(PID.TID 0000.0001)                   F
(PID.TID 0000.0001)     ;
(PID.TID 0000.0001) useAbsVorticity= /* V.I Works with f+zeta in Coriolis */
(PID.TID 0000.0001)                   F
(PID.TID 0000.0001)     ;
(PID.TID 0000.0001) selectVortScheme= /* V.I Scheme selector for Vorticity-Term */
(PID.TID 0000.0001)               123456789
(PID.TID 0000.0001)    = 0 : enstrophy (Shallow-Water Eq.) conserving scheme by Sadourny, JAS 75
(PID.TID 0000.0001)    = 1 : same as 0 with modified hFac
(PID.TID 0000.0001)    = 2 : energy conserving scheme (used by Sadourny in JAS 75 paper)
(PID.TID 0000.0001)    = 3 : energy (general) and enstrophy (2D, nonDiv.) conserving scheme
(PID.TID 0000.0001)          from Sadourny (Burridge & Haseler, ECMWF Rep.4, 1977)
(PID.TID 0000.0001)     ;
(PID.TID 0000.0001) upwindVorticity= /* V.I Upwind bias vorticity flag */
(PID.TID 0000.0001)                   F
(PID.TID 0000.0001)     ;
(PID.TID 0000.0001) highOrderVorticity= /* V.I High order vort. advect. flag */
(PID.TID 0000.0001)                   F
(PID.TID 0000.0001)     ;
(PID.TID 0000.0001) upwindShear= /* V.I Upwind vertical Shear advection flag */
(PID.TID 0000.0001)                   F
(PID.TID 0000.0001)     ;
(PID.TID 0000.0001) selectKEscheme= /* V.I Kinetic Energy scheme selector */
(PID.TID 0000.0001)                       0
(PID.TID 0000.0001)     ;
(PID.TID 0000.0001) momForcing =  /* Momentum forcing on/off flag */
(PID.TID 0000.0001)                   T
(PID.TID 0000.0001)     ;
(PID.TID 0000.0001) momPressureForcing =  /* Momentum pressure term on/off flag */
(PID.TID 0000.0001)                   T
(PID.TID 0000.0001)     ;
(PID.TID 0000.0001) implicitIntGravWave= /* Implicit Internal Gravity Wave flag */
(PID.TID 0000.0001)                   F
(PID.TID 0000.0001)     ;
(PID.TID 0000.0001) staggerTimeStep =    /* Stagger time stepping on/off flag */
(PID.TID 0000.0001)                   T
(PID.TID 0000.0001)     ;
(PID.TID 0000.0001) doResetHFactors = /* reset thickness factors @ each time-step */
(PID.TID 0000.0001)                   T
(PID.TID 0000.0001)     ;
(PID.TID 0000.0001) multiDimAdvection =  /* enable/disable Multi-Dim Advection */
(PID.TID 0000.0001)                   T
(PID.TID 0000.0001)     ;
(PID.TID 0000.0001) useMultiDimAdvec =   /* Multi-Dim Advection is/is-not used */
(PID.TID 0000.0001)                   T
(PID.TID 0000.0001)     ;
(PID.TID 0000.0001) implicitDiffusion = /* Implicit Diffusion on/off flag */
(PID.TID 0000.0001)                   T
(PID.TID 0000.0001)     ;
(PID.TID 0000.0001) tempStepping =  /* Temperature equation on/off flag */
(PID.TID 0000.0001)                   T
(PID.TID 0000.0001)     ;
(PID.TID 0000.0001) tempAdvection = /* Temperature advection on/off flag */
(PID.TID 0000.0001)                   T
(PID.TID 0000.0001)     ;
(PID.TID 0000.0001) tempImplVertAdv = /* Temp. implicit vert. advection on/off */
(PID.TID 0000.0001)                   F
(PID.TID 0000.0001)     ;
(PID.TID 0000.0001) tempForcing  =  /* Temperature forcing on/off flag */
(PID.TID 0000.0001)                   T
(PID.TID 0000.0001)     ;
(PID.TID 0000.0001) doThetaClimRelax = /* apply SST relaxation on/off flag */
(PID.TID 0000.0001)                   T
(PID.TID 0000.0001)     ;
(PID.TID 0000.0001) tempIsActiveTr = /* Temp. is a dynamically Active Tracer */
(PID.TID 0000.0001)                   T
(PID.TID 0000.0001)     ;
(PID.TID 0000.0001) saltStepping =  /* Salinity equation on/off flag */
(PID.TID 0000.0001)                   T
(PID.TID 0000.0001)     ;
(PID.TID 0000.0001) saltAdvection = /* Salinity advection on/off flag */
(PID.TID 0000.0001)                   T
(PID.TID 0000.0001)     ;
(PID.TID 0000.0001) saltImplVertAdv = /* Sali. implicit vert. advection on/off */
(PID.TID 0000.0001)                   F
(PID.TID 0000.0001)     ;
(PID.TID 0000.0001) saltForcing  =  /* Salinity forcing on/off flag */
(PID.TID 0000.0001)                   T
(PID.TID 0000.0001)     ;
(PID.TID 0000.0001) doSaltClimRelax = /* apply SSS relaxation on/off flag */
(PID.TID 0000.0001)                   T
(PID.TID 0000.0001)     ;
(PID.TID 0000.0001) saltIsActiveTr = /* Salt  is a dynamically Active Tracer */
(PID.TID 0000.0001)                   T
(PID.TID 0000.0001)     ;
(PID.TID 0000.0001)  readBinaryPrec = /* Precision used for reading binary files */
(PID.TID 0000.0001)                      32
(PID.TID 0000.0001)     ;
(PID.TID 0000.0001) writeBinaryPrec = /* Precision used for writing binary files */
(PID.TID 0000.0001)                      32
(PID.TID 0000.0001)     ;
(PID.TID 0000.0001)  globalFiles = /* write "global" (=not per tile) files */
(PID.TID 0000.0001)                   F
(PID.TID 0000.0001)     ;
(PID.TID 0000.0001)  useSingleCpuIO = /* only master MPI process does I/O */
(PID.TID 0000.0001)                   F
(PID.TID 0000.0001)     ;
(PID.TID 0000.0001)  useSingleCpuInput = /* only master process reads input */
(PID.TID 0000.0001)                   F
(PID.TID 0000.0001)     ;
(PID.TID 0000.0001) /* debLev[*]  : level of debug & auxiliary message printing */
(PID.TID 0000.0001) debLevZero =  0 ; /* level of disabled aux. msg printing */
(PID.TID 0000.0001)    debLevA =  1 ; /* level of minimum  aux. msg printing */
(PID.TID 0000.0001)    debLevB =  2 ; /* level of low aux. print (report read-file opening)*/
(PID.TID 0000.0001)    debLevC =  3 ; /* level of moderate debug prt (most pkgs debug msg) */
(PID.TID 0000.0001)    debLevD =  4 ; /* level of enhanced debug prt (add DEBUG_STATS prt) */
(PID.TID 0000.0001)    debLevE =  5 ; /* level of extensive debug printing */
(PID.TID 0000.0001) debugLevel =  /* select debug printing level */
(PID.TID 0000.0001)                       1
(PID.TID 0000.0001)     ;
(PID.TID 0000.0001) //
(PID.TID 0000.0001) // Elliptic solver(s) paramters ( PARM02 in namelist )
(PID.TID 0000.0001) //
(PID.TID 0000.0001) cg2dMaxIters =   /* Upper limit on 2d con. grad iterations  */
(PID.TID 0000.0001)                     200
(PID.TID 0000.0001)     ;
(PID.TID 0000.0001) cg2dChkResFreq =   /* 2d con. grad convergence test frequency */
(PID.TID 0000.0001)                       1
(PID.TID 0000.0001)     ;
(PID.TID 0000.0001) cg2dUseMinResSol= /* use cg2d last-iter(=0) / min-resid.(=1) solution */
(PID.TID 0000.0001)                       0
(PID.TID 0000.0001)     ;
(PID.TID 0000.0001) cg2dTargetResidual =   /* 2d con. grad target residual  */
(PID.TID 0000.0001)                 1.000000000000000E-07
(PID.TID 0000.0001)     ;
(PID.TID 0000.0001) cg2dTargetResWunit =   /* CG2d target residual [W units] */
(PID.TID 0000.0001)                 9.999999999999999E-25
(PID.TID 0000.0001)     ;
(PID.TID 0000.0001) cg2dPreCondFreq =   /* Freq. for updating cg2d preconditioner */
(PID.TID 0000.0001)                       1
(PID.TID 0000.0001)     ;
(PID.TID 0000.0001) useSRCGSolver =  /* use single reduction CG solver(s) */
(PID.TID 0000.0001)                   F
(PID.TID 0000.0001)     ;
(PID.TID 0000.0001) printResidualFreq = /* Freq. for printing CG residual */
(PID.TID 0000.0001)                       0
(PID.TID 0000.0001)     ;
(PID.TID 0000.0001) //
(PID.TID 0000.0001) // Time stepping paramters ( PARM03 in namelist )
(PID.TID 0000.0001) //
(PID.TID 0000.0001) deltaTMom =   /* Momentum equation timestep ( s ) */
(PID.TID 0000.0001)                 2.400000000000000E+03
(PID.TID 0000.0001)     ;
(PID.TID 0000.0001) deltaTFreeSurf = /* FreeSurface equation timestep ( s ) */
(PID.TID 0000.0001)                 8.640000000000000E+04
(PID.TID 0000.0001)     ;
(PID.TID 0000.0001) dTtracerLev =  /* Tracer equation timestep ( s ) */
(PID.TID 0000.0001)    20 @  8.640000000000000E+04              /* K =  1: 20 */
(PID.TID 0000.0001)     ;
(PID.TID 0000.0001) deltaTClock  =   /* Model clock timestep ( s ) */
(PID.TID 0000.0001)                 8.640000000000000E+04
(PID.TID 0000.0001)     ;
(PID.TID 0000.0001) cAdjFreq =   /* Convective adjustment interval ( s ) */
(PID.TID 0000.0001)                 8.640000000000000E+04
(PID.TID 0000.0001)     ;
(PID.TID 0000.0001) momForcingOutAB = /* =1: take Momentum Forcing out of Adams-Bash. stepping */
(PID.TID 0000.0001)                       0
(PID.TID 0000.0001)     ;
(PID.TID 0000.0001) tracForcingOutAB = /* =1: take T,S,pTr Forcing out of Adams-Bash. stepping */
(PID.TID 0000.0001)                       0
(PID.TID 0000.0001)     ;
(PID.TID 0000.0001) momDissip_In_AB = /* put Dissipation Tendency in Adams-Bash. stepping */
(PID.TID 0000.0001)                   T
(PID.TID 0000.0001)     ;
(PID.TID 0000.0001) doAB_onGtGs = /* apply AB on Tendencies (rather than on T,S)*/
(PID.TID 0000.0001)                   T
(PID.TID 0000.0001)     ;
(PID.TID 0000.0001) abEps =   /* Adams-Bashforth-2 stabilizing weight */
(PID.TID 0000.0001)                 1.000000000000000E-01
(PID.TID 0000.0001)     ;
(PID.TID 0000.0001) applyExchUV_early = /* Apply EXCH to U,V earlier in time-step */
(PID.TID 0000.0001)                   F
(PID.TID 0000.0001)     ;
(PID.TID 0000.0001) tauCD =   /* CD coupling time-scale ( s ) */
(PID.TID 0000.0001)                 3.214280000000000E+05
(PID.TID 0000.0001)     ;
(PID.TID 0000.0001) rCD =   /* Normalised CD coupling parameter */
(PID.TID 0000.0001)                 9.925333200592357E-01
(PID.TID 0000.0001)     ;
(PID.TID 0000.0001) epsAB_CD = /* AB-2 stabilizing weight for CD-scheme*/
(PID.TID 0000.0001)                 1.000000000000000E-01
(PID.TID 0000.0001)     ;
(PID.TID 0000.0001) pickupStrictlyMatch= /* stop if pickup do not strictly match */
(PID.TID 0000.0001)                   T
(PID.TID 0000.0001)     ;
(PID.TID 0000.0001) nIter0   =   /* Run starting timestep number */
(PID.TID 0000.0001)                       0
(PID.TID 0000.0001)     ;
(PID.TID 0000.0001) nTimeSteps = /* Number of timesteps */
(PID.TID 0000.0001)                       4
(PID.TID 0000.0001)     ;
(PID.TID 0000.0001) nEndIter =   /* Run ending timestep number */
(PID.TID 0000.0001)                       4
(PID.TID 0000.0001)     ;
(PID.TID 0000.0001) baseTime =   /* Model base time ( s ) */
(PID.TID 0000.0001)                 0.000000000000000E+00
(PID.TID 0000.0001)     ;
(PID.TID 0000.0001) startTime =  /* Run start time ( s ) */
(PID.TID 0000.0001)                 0.000000000000000E+00
(PID.TID 0000.0001)     ;
(PID.TID 0000.0001) endTime  =   /* Integration ending time ( s ) */
(PID.TID 0000.0001)                 3.456000000000000E+05
(PID.TID 0000.0001)     ;
(PID.TID 0000.0001) pChkPtFreq = /* Permanent restart/pickup file interval ( s ) */
(PID.TID 0000.0001)                 8.640000000000000E+07
(PID.TID 0000.0001)     ;
(PID.TID 0000.0001) chkPtFreq  = /* Rolling restart/pickup file interval ( s ) */
(PID.TID 0000.0001)                 8.640000000000000E+07
(PID.TID 0000.0001)     ;
(PID.TID 0000.0001) pickup_write_mdsio =   /* Model IO flag. */
(PID.TID 0000.0001)                   T
(PID.TID 0000.0001)     ;
(PID.TID 0000.0001) pickup_read_mdsio =   /* Model IO flag. */
(PID.TID 0000.0001)                   T
(PID.TID 0000.0001)     ;
(PID.TID 0000.0001) pickup_write_immed =   /* Model IO flag. */
(PID.TID 0000.0001)                   F
(PID.TID 0000.0001)     ;
(PID.TID 0000.0001) writePickupAtEnd =   /* Model IO flag. */
(PID.TID 0000.0001)                   T
(PID.TID 0000.0001)     ;
(PID.TID 0000.0001) dumpFreq =   /* Model state write out interval ( s ). */
(PID.TID 0000.0001)                 8.640000000000000E+04
(PID.TID 0000.0001)     ;
(PID.TID 0000.0001) dumpInitAndLast= /* write out Initial & Last iter. model state */
(PID.TID 0000.0001)                   T
(PID.TID 0000.0001)     ;
(PID.TID 0000.0001) snapshot_mdsio =   /* Model IO flag. */
(PID.TID 0000.0001)                   T
(PID.TID 0000.0001)     ;
(PID.TID 0000.0001) monitorFreq =   /* Monitor output interval ( s ). */
(PID.TID 0000.0001)                 4.320000000000000E+04
(PID.TID 0000.0001)     ;
(PID.TID 0000.0001) monitorSelect = /* select group of variables to monitor */
(PID.TID 0000.0001)                       3
(PID.TID 0000.0001)     ;
(PID.TID 0000.0001) monitor_stdio =   /* Model IO flag. */
(PID.TID 0000.0001)                   T
(PID.TID 0000.0001)     ;
(PID.TID 0000.0001) externForcingPeriod =   /* forcing period (s) */
(PID.TID 0000.0001)                 0.000000000000000E+00
(PID.TID 0000.0001)     ;
(PID.TID 0000.0001) externForcingCycle =   /* period of the cyle (s). */
(PID.TID 0000.0001)                 0.000000000000000E+00
(PID.TID 0000.0001)     ;
(PID.TID 0000.0001) tauThetaClimRelax =   /* relaxation time scale (s) */
(PID.TID 0000.0001)                 2.592000000000000E+06
(PID.TID 0000.0001)     ;
(PID.TID 0000.0001) tauSaltClimRelax =   /* relaxation time scale (s) */
(PID.TID 0000.0001)                 2.592000000000000E+06
(PID.TID 0000.0001)     ;
(PID.TID 0000.0001) latBandClimRelax =   /* max. Lat. where relaxation */
(PID.TID 0000.0001)                 1.800000000000000E+02
(PID.TID 0000.0001)     ;
(PID.TID 0000.0001) //
(PID.TID 0000.0001) // Gridding paramters ( PARM04 in namelist )
(PID.TID 0000.0001) //
(PID.TID 0000.0001) usingCartesianGrid = /* Cartesian coordinates flag ( True/False ) */
(PID.TID 0000.0001)                   F
(PID.TID 0000.0001)     ;
(PID.TID 0000.0001) usingCylindricalGrid = /* Cylindrical coordinates flag ( True/False ) */
(PID.TID 0000.0001)                   F
(PID.TID 0000.0001)     ;
(PID.TID 0000.0001) usingSphericalPolarGrid = /* Spherical coordinates flag ( True/False ) */
(PID.TID 0000.0001)                   T
(PID.TID 0000.0001)     ;
(PID.TID 0000.0001) usingCurvilinearGrid = /* Curvilinear coordinates flag ( True/False ) */
(PID.TID 0000.0001)                   F
(PID.TID 0000.0001)     ;
(PID.TID 0000.0001) selectSigmaCoord = /* Hybrid-Sigma Vert. Coordinate option */
(PID.TID 0000.0001)                       0
(PID.TID 0000.0001)     ;
(PID.TID 0000.0001) rSigmaBnd = /* r/sigma transition ( units of r ==  m ) */
(PID.TID 0000.0001)                 1.234567000000000E+05
(PID.TID 0000.0001)     ;
(PID.TID 0000.0001) rkSign =   /* index orientation relative to vertical coordinate */
(PID.TID 0000.0001)                -1.000000000000000E+00
(PID.TID 0000.0001)     ;
(PID.TID 0000.0001) gravitySign = /* gravity orientation relative to vertical coordinate */
(PID.TID 0000.0001)                -1.000000000000000E+00
(PID.TID 0000.0001)     ;
(PID.TID 0000.0001) seaLev_Z =  /* reference height of sea-level [m] */
(PID.TID 0000.0001)                 0.000000000000000E+00
(PID.TID 0000.0001)     ;
(PID.TID 0000.0001) top_Pres =  /* reference pressure at the top [Pa] */
(PID.TID 0000.0001)                 0.000000000000000E+00
(PID.TID 0000.0001)     ;
(PID.TID 0000.0001) mass2rUnit = /* convert mass per unit area [kg/m2] to r-units [m] */
(PID.TID 0000.0001)                 1.000200040008002E-03
(PID.TID 0000.0001)     ;
(PID.TID 0000.0001) rUnit2mass = /* convert r-units [m] to mass per unit area [kg/m2] */
(PID.TID 0000.0001)                 9.998000000000000E+02
(PID.TID 0000.0001)     ;
(PID.TID 0000.0001) drC =   /* C spacing ( units of r ) */
(PID.TID 0000.0001)                 2.500000000000000E+01,      /* K =  1 */
(PID.TID 0000.0001)                 5.000000000000000E+01,      /* K =  2 */
(PID.TID 0000.0001)                 5.250000000000000E+01,      /* K =  3 */
(PID.TID 0000.0001)                 5.750000000000000E+01,      /* K =  4 */
(PID.TID 0000.0001)                 6.250000000000000E+01,      /* K =  5 */
(PID.TID 0000.0001)                 6.750000000000000E+01,      /* K =  6 */
(PID.TID 0000.0001)                 7.500000000000000E+01,      /* K =  7 */
(PID.TID 0000.0001)                 8.750000000000000E+01,      /* K =  8 */
(PID.TID 0000.0001)                 1.075000000000000E+02,      /* K =  9 */
(PID.TID 0000.0001)                 1.375000000000000E+02,      /* K = 10 */
(PID.TID 0000.0001)                 1.775000000000000E+02,      /* K = 11 */
(PID.TID 0000.0001)                 2.300000000000000E+02,      /* K = 12 */
(PID.TID 0000.0001)                 2.900000000000000E+02,      /* K = 13 */
(PID.TID 0000.0001)                 3.600000000000000E+02,      /* K = 14 */
(PID.TID 0000.0001)                 4.400000000000000E+02,      /* K = 15 */
(PID.TID 0000.0001)                 5.250000000000000E+02,      /* K = 16 */
(PID.TID 0000.0001)                 6.125000000000000E+02,      /* K = 17 */
(PID.TID 0000.0001)                 6.900000000000000E+02,      /* K = 18 */
(PID.TID 0000.0001)                 7.500000000000000E+02,      /* K = 19 */
(PID.TID 0000.0001)                 7.950000000000000E+02,      /* K = 20 */
(PID.TID 0000.0001)                 4.075000000000000E+02       /* K = 21 */
(PID.TID 0000.0001)     ;
(PID.TID 0000.0001) drF =   /* W spacing ( units of r ) */
(PID.TID 0000.0001)     2 @  5.000000000000000E+01,             /* K =  1:  2 */
(PID.TID 0000.0001)                 5.500000000000000E+01,      /* K =  3 */
(PID.TID 0000.0001)                 6.000000000000000E+01,      /* K =  4 */
(PID.TID 0000.0001)                 6.500000000000000E+01,      /* K =  5 */
(PID.TID 0000.0001)                 7.000000000000000E+01,      /* K =  6 */
(PID.TID 0000.0001)                 8.000000000000000E+01,      /* K =  7 */
(PID.TID 0000.0001)                 9.500000000000000E+01,      /* K =  8 */
(PID.TID 0000.0001)                 1.200000000000000E+02,      /* K =  9 */
(PID.TID 0000.0001)                 1.550000000000000E+02,      /* K = 10 */
(PID.TID 0000.0001)                 2.000000000000000E+02,      /* K = 11 */
(PID.TID 0000.0001)                 2.600000000000000E+02,      /* K = 12 */
(PID.TID 0000.0001)                 3.200000000000000E+02,      /* K = 13 */
(PID.TID 0000.0001)                 4.000000000000000E+02,      /* K = 14 */
(PID.TID 0000.0001)                 4.800000000000000E+02,      /* K = 15 */
(PID.TID 0000.0001)                 5.700000000000000E+02,      /* K = 16 */
(PID.TID 0000.0001)                 6.550000000000000E+02,      /* K = 17 */
(PID.TID 0000.0001)                 7.250000000000000E+02,      /* K = 18 */
(PID.TID 0000.0001)                 7.750000000000000E+02,      /* K = 19 */
(PID.TID 0000.0001)                 8.150000000000000E+02       /* K = 20 */
(PID.TID 0000.0001)     ;
(PID.TID 0000.0001) delX = /* U spacing ( m - cartesian, degrees - spherical ) */
(PID.TID 0000.0001)    90 @  4.000000000000000E+00              /* I =  1: 90 */
(PID.TID 0000.0001)     ;
(PID.TID 0000.0001) delY = /* V spacing ( m - cartesian, degrees - spherical ) */
(PID.TID 0000.0001)    40 @  4.000000000000000E+00              /* J =  1: 40 */
(PID.TID 0000.0001)     ;
(PID.TID 0000.0001) xgOrigin = /* X-axis origin of West  edge (cartesian: m, lat-lon: deg) */
(PID.TID 0000.0001)                 0.000000000000000E+00
(PID.TID 0000.0001)     ;
(PID.TID 0000.0001) ygOrigin = /* Y-axis origin of South edge (cartesian: m, lat-lon: deg) */
(PID.TID 0000.0001)                -8.000000000000000E+01
(PID.TID 0000.0001)     ;
(PID.TID 0000.0001) rSphere =  /* Radius ( ignored - cartesian, m - spherical ) */
(PID.TID 0000.0001)                 6.370000000000000E+06
(PID.TID 0000.0001)     ;
(PID.TID 0000.0001) deepAtmosphere = /* Deep/Shallow Atmosphere flag (True/False) */
(PID.TID 0000.0001)                   F
(PID.TID 0000.0001)     ;
(PID.TID 0000.0001) xC =  /* xC(:,1,:,1) : P-point X coord ( deg. or m if cartesian) */
(PID.TID 0000.0001)                 2.000000000000000E+00,      /* I =  1 */
(PID.TID 0000.0001)                 6.000000000000000E+00,      /* I =  2 */
(PID.TID 0000.0001)                 1.000000000000000E+01,      /* I =  3 */
(PID.TID 0000.0001)      . . .
(PID.TID 0000.0001)                 8.200000000000000E+01,      /* I = 21 */
(PID.TID 0000.0001)                 8.600000000000000E+01,      /* I = 22 */
(PID.TID 0000.0001)                 9.000000000000000E+01,      /* I = 23 */
(PID.TID 0000.0001)                 9.400000000000000E+01,      /* I = 24 */
(PID.TID 0000.0001)                 9.800000000000000E+01,      /* I = 25 */
(PID.TID 0000.0001)                 1.020000000000000E+02,      /* I = 26 */
(PID.TID 0000.0001)      . . .
(PID.TID 0000.0001)                 1.700000000000000E+02,      /* I = 43 */
(PID.TID 0000.0001)                 1.740000000000000E+02,      /* I = 44 */
(PID.TID 0000.0001)                 1.780000000000000E+02,      /* I = 45 */
(PID.TID 0000.0001)                 1.820000000000000E+02,      /* I = 46 */
(PID.TID 0000.0001)                 1.860000000000000E+02,      /* I = 47 */
(PID.TID 0000.0001)                 1.900000000000000E+02,      /* I = 48 */
(PID.TID 0000.0001)      . . .
(PID.TID 0000.0001)                 2.580000000000000E+02,      /* I = 65 */
(PID.TID 0000.0001)                 2.620000000000000E+02,      /* I = 66 */
(PID.TID 0000.0001)                 2.660000000000000E+02,      /* I = 67 */
(PID.TID 0000.0001)                 2.700000000000000E+02,      /* I = 68 */
(PID.TID 0000.0001)                 2.740000000000000E+02,      /* I = 69 */
(PID.TID 0000.0001)                 2.780000000000000E+02,      /* I = 70 */
(PID.TID 0000.0001)      . . .
(PID.TID 0000.0001)                 3.500000000000000E+02,      /* I = 88 */
(PID.TID 0000.0001)                 3.540000000000000E+02,      /* I = 89 */
(PID.TID 0000.0001)                 3.580000000000000E+02       /* I = 90 */
(PID.TID 0000.0001)     ;
(PID.TID 0000.0001) yC =  /* yC(1,:,1,:) : P-point Y coord ( deg. or m if cartesian) */
(PID.TID 0000.0001)                -7.800000000000000E+01,      /* J =  1 */
(PID.TID 0000.0001)                -7.400000000000000E+01,      /* J =  2 */
(PID.TID 0000.0001)                -7.000000000000000E+01,      /* J =  3 */
(PID.TID 0000.0001)                -6.600000000000000E+01,      /* J =  4 */
(PID.TID 0000.0001)                -6.200000000000000E+01,      /* J =  5 */
(PID.TID 0000.0001)                -5.800000000000000E+01,      /* J =  6 */
(PID.TID 0000.0001)                -5.400000000000000E+01,      /* J =  7 */
(PID.TID 0000.0001)                -5.000000000000000E+01,      /* J =  8 */
(PID.TID 0000.0001)                -4.600000000000000E+01,      /* J =  9 */
(PID.TID 0000.0001)                -4.200000000000000E+01,      /* J = 10 */
(PID.TID 0000.0001)                -3.800000000000000E+01,      /* J = 11 */
(PID.TID 0000.0001)                -3.400000000000000E+01,      /* J = 12 */
(PID.TID 0000.0001)                -3.000000000000000E+01,      /* J = 13 */
(PID.TID 0000.0001)                -2.600000000000000E+01,      /* J = 14 */
(PID.TID 0000.0001)                -2.200000000000000E+01,      /* J = 15 */
(PID.TID 0000.0001)                -1.800000000000000E+01,      /* J = 16 */
(PID.TID 0000.0001)                -1.400000000000000E+01,      /* J = 17 */
(PID.TID 0000.0001)                -1.000000000000000E+01,      /* J = 18 */
(PID.TID 0000.0001)                -6.000000000000000E+00,      /* J = 19 */
(PID.TID 0000.0001)                -2.000000000000000E+00,      /* J = 20 */
(PID.TID 0000.0001)                 2.000000000000000E+00,      /* J = 21 */
(PID.TID 0000.0001)                 6.000000000000000E+00,      /* J = 22 */
(PID.TID 0000.0001)                 1.000000000000000E+01,      /* J = 23 */
(PID.TID 0000.0001)                 1.400000000000000E+01,      /* J = 24 */
(PID.TID 0000.0001)                 1.800000000000000E+01,      /* J = 25 */
(PID.TID 0000.0001)                 2.200000000000000E+01,      /* J = 26 */
(PID.TID 0000.0001)                 2.600000000000000E+01,      /* J = 27 */
(PID.TID 0000.0001)                 3.000000000000000E+01,      /* J = 28 */
(PID.TID 0000.0001)                 3.400000000000000E+01,      /* J = 29 */
(PID.TID 0000.0001)                 3.800000000000000E+01,      /* J = 30 */
(PID.TID 0000.0001)                 4.200000000000000E+01,      /* J = 31 */
(PID.TID 0000.0001)                 4.600000000000000E+01,      /* J = 32 */
(PID.TID 0000.0001)                 5.000000000000000E+01,      /* J = 33 */
(PID.TID 0000.0001)                 5.400000000000000E+01,      /* J = 34 */
(PID.TID 0000.0001)                 5.800000000000000E+01,      /* J = 35 */
(PID.TID 0000.0001)                 6.200000000000000E+01,      /* J = 36 */
(PID.TID 0000.0001)                 6.600000000000000E+01,      /* J = 37 */
(PID.TID 0000.0001)                 7.000000000000000E+01,      /* J = 38 */
(PID.TID 0000.0001)                 7.400000000000000E+01,      /* J = 39 */
(PID.TID 0000.0001)                 7.800000000000000E+01       /* J = 40 */
(PID.TID 0000.0001)     ;
(PID.TID 0000.0001) rcoord = /* P-point R coordinate (  units of r ) */
(PID.TID 0000.0001)                -2.500000000000000E+01,      /* K =  1 */
(PID.TID 0000.0001)                -7.500000000000000E+01,      /* K =  2 */
(PID.TID 0000.0001)                -1.275000000000000E+02,      /* K =  3 */
(PID.TID 0000.0001)                -1.850000000000000E+02,      /* K =  4 */
(PID.TID 0000.0001)                -2.475000000000000E+02,      /* K =  5 */
(PID.TID 0000.0001)                -3.150000000000000E+02,      /* K =  6 */
(PID.TID 0000.0001)                -3.900000000000000E+02,      /* K =  7 */
(PID.TID 0000.0001)                -4.775000000000000E+02,      /* K =  8 */
(PID.TID 0000.0001)                -5.850000000000000E+02,      /* K =  9 */
(PID.TID 0000.0001)                -7.225000000000000E+02,      /* K = 10 */
(PID.TID 0000.0001)                -9.000000000000000E+02,      /* K = 11 */
(PID.TID 0000.0001)                -1.130000000000000E+03,      /* K = 12 */
(PID.TID 0000.0001)                -1.420000000000000E+03,      /* K = 13 */
(PID.TID 0000.0001)                -1.780000000000000E+03,      /* K = 14 */
(PID.TID 0000.0001)                -2.220000000000000E+03,      /* K = 15 */
(PID.TID 0000.0001)                -2.745000000000000E+03,      /* K = 16 */
(PID.TID 0000.0001)                -3.357500000000000E+03,      /* K = 17 */
(PID.TID 0000.0001)                -4.047500000000000E+03,      /* K = 18 */
(PID.TID 0000.0001)                -4.797500000000000E+03,      /* K = 19 */
(PID.TID 0000.0001)                -5.592500000000000E+03       /* K = 20 */
(PID.TID 0000.0001)     ;
(PID.TID 0000.0001) rF =   /* W-Interf. R coordinate (  units of r ) */
(PID.TID 0000.0001)                 0.000000000000000E+00,      /* K =  1 */
(PID.TID 0000.0001)                -5.000000000000000E+01,      /* K =  2 */
(PID.TID 0000.0001)                -1.000000000000000E+02,      /* K =  3 */
(PID.TID 0000.0001)                -1.550000000000000E+02,      /* K =  4 */
(PID.TID 0000.0001)                -2.150000000000000E+02,      /* K =  5 */
(PID.TID 0000.0001)                -2.800000000000000E+02,      /* K =  6 */
(PID.TID 0000.0001)                -3.500000000000000E+02,      /* K =  7 */
(PID.TID 0000.0001)                -4.300000000000000E+02,      /* K =  8 */
(PID.TID 0000.0001)                -5.250000000000000E+02,      /* K =  9 */
(PID.TID 0000.0001)                -6.450000000000000E+02,      /* K = 10 */
(PID.TID 0000.0001)                -8.000000000000000E+02,      /* K = 11 */
(PID.TID 0000.0001)                -1.000000000000000E+03,      /* K = 12 */
(PID.TID 0000.0001)                -1.260000000000000E+03,      /* K = 13 */
(PID.TID 0000.0001)                -1.580000000000000E+03,      /* K = 14 */
(PID.TID 0000.0001)                -1.980000000000000E+03,      /* K = 15 */
(PID.TID 0000.0001)                -2.460000000000000E+03,      /* K = 16 */
(PID.TID 0000.0001)                -3.030000000000000E+03,      /* K = 17 */
(PID.TID 0000.0001)                -3.685000000000000E+03,      /* K = 18 */
(PID.TID 0000.0001)                -4.410000000000000E+03,      /* K = 19 */
(PID.TID 0000.0001)                -5.185000000000000E+03,      /* K = 20 */
(PID.TID 0000.0001)                -6.000000000000000E+03       /* K = 21 */
(PID.TID 0000.0001)     ;
(PID.TID 0000.0001) deepFacC = /* deep-model grid factor @ cell-Center (-) */
(PID.TID 0000.0001)    20 @  1.000000000000000E+00              /* K =  1: 20 */
(PID.TID 0000.0001)     ;
(PID.TID 0000.0001) deepFacF = /* deep-model grid factor @ W-Interface (-) */
(PID.TID 0000.0001)    21 @  1.000000000000000E+00              /* K =  1: 21 */
(PID.TID 0000.0001)     ;
(PID.TID 0000.0001) rVel2wUnit = /* convert units: rVel -> wSpeed (=1 if z-coord)*/
(PID.TID 0000.0001)    21 @  1.000000000000000E+00              /* K =  1: 21 */
(PID.TID 0000.0001)     ;
(PID.TID 0000.0001) wUnit2rVel = /* convert units: wSpeed -> rVel (=1 if z-coord)*/
(PID.TID 0000.0001)    21 @  1.000000000000000E+00              /* K =  1: 21 */
(PID.TID 0000.0001)     ;
(PID.TID 0000.0001) dBdrRef = /* Vertical grad. of reference buoyancy [(m/s/r)^2] */
(PID.TID 0000.0001)                 0.000000000000000E+00,      /* K =  1 */
(PID.TID 0000.0001)                 4.591080000000024E-05,      /* K =  2 */
(PID.TID 0000.0001)                 3.583920000000001E-05,      /* K =  3 */
(PID.TID 0000.0001)                 2.678556521739093E-05,      /* K =  4 */
(PID.TID 0000.0001)                 2.231971200000012E-05,      /* K =  5 */
(PID.TID 0000.0001)                 2.616000000000001E-05,      /* K =  6 */
(PID.TID 0000.0001)                 2.490432000000007E-05,      /* K =  7 */
(PID.TID 0000.0001)                 2.475483428571444E-05,      /* K =  8 */
(PID.TID 0000.0001)                 2.129910697674396E-05,      /* K =  9 */
(PID.TID 0000.0001)                 1.950584727272747E-05,      /* K = 10 */
(PID.TID 0000.0001)                 1.576232112676044E-05,      /* K = 11 */
(PID.TID 0000.0001)                 1.320511304347824E-05,      /* K = 12 */
(PID.TID 0000.0001)                 7.590910344827643E-06,      /* K = 13 */
(PID.TID 0000.0001)                 4.076599999999984E-06,      /* K = 14 */
(PID.TID 0000.0001)                 2.394531818181785E-06,      /* K = 15 */
(PID.TID 0000.0001)                 1.259417142857214E-06,      /* K = 16 */
(PID.TID 0000.0001)                 1.162785306122388E-06,      /* K = 17 */
(PID.TID 0000.0001)                 8.530434782608699E-07,      /* K = 18 */
(PID.TID 0000.0001)                 2.694480000000193E-07,      /* K = 19 */
(PID.TID 0000.0001)                 7.403773584905668E-08       /* K = 20 */
(PID.TID 0000.0001)     ;
(PID.TID 0000.0001) rotateGrid = /* use rotated grid ( True/False ) */
(PID.TID 0000.0001)                   F
(PID.TID 0000.0001)     ;
(PID.TID 0000.0001) phiEuler = /* Euler angle, rotation about original z-coordinate [rad] */
(PID.TID 0000.0001)                 0.000000000000000E+00
(PID.TID 0000.0001)     ;
(PID.TID 0000.0001) thetaEuler = /* Euler angle, rotation about new x-coordinate [rad] */
(PID.TID 0000.0001)                 0.000000000000000E+00
(PID.TID 0000.0001)     ;
(PID.TID 0000.0001) psiEuler = /* Euler angle, rotation about new z-coordinate [rad] */
(PID.TID 0000.0001)                 0.000000000000000E+00
(PID.TID 0000.0001)     ;
(PID.TID 0000.0001) dxF =  /* dxF(:,1,:,1) ( units: m ) */
(PID.TID 0000.0001)    90 @  9.246038586187513E+04              /* I =  1: 90 */
(PID.TID 0000.0001)     ;
(PID.TID 0000.0001) dxF =  /* dxF(1,:,1,:) ( units: m ) */
(PID.TID 0000.0001)                 9.246038586187513E+04,      /* J =  1 */
(PID.TID 0000.0001)                 1.225786591246834E+05,      /* J =  2 */
(PID.TID 0000.0001)                 1.520997414818001E+05,      /* J =  3 */
(PID.TID 0000.0001)                 1.808798091874300E+05,      /* J =  4 */
(PID.TID 0000.0001)                 2.087786486446736E+05,      /* J =  5 */
(PID.TID 0000.0001)                 2.356603395120765E+05,      /* J =  6 */
(PID.TID 0000.0001)                 2.613939168938713E+05,      /* J =  7 */
(PID.TID 0000.0001)                 2.858540093877838E+05,      /* J =  8 */
(PID.TID 0000.0001)                 3.089214498819034E+05,      /* J =  9 */
(PID.TID 0000.0001)                 3.304838561248741E+05,      /* J = 10 */
(PID.TID 0000.0001)                 3.504361782409254E+05,      /* J = 11 */
(PID.TID 0000.0001)                 3.686812105223082E+05,      /* J = 12 */
(PID.TID 0000.0001)                 3.851300650057323E+05,      /* J = 13 */
(PID.TID 0000.0001)                 3.997026045255871E+05,      /* J = 14 */
(PID.TID 0000.0001)                 4.123278331341585E+05,      /* J = 15 */
(PID.TID 0000.0001)                 4.229442419867491E+05,      /* J = 16 */
(PID.TID 0000.0001)                 4.315001090065870E+05,      /* J = 17 */
(PID.TID 0000.0001)                 4.379537508695838E+05,      /* J = 18 */
(PID.TID 0000.0001)                 4.422737260813012E+05,      /* J = 19 */
(PID.TID 0000.0001)     2 @  4.444389881567502E+05,             /* J = 20: 21 */
(PID.TID 0000.0001)                 4.422737260813012E+05,      /* J = 22 */
(PID.TID 0000.0001)                 4.379537508695838E+05,      /* J = 23 */
(PID.TID 0000.0001)                 4.315001090065870E+05,      /* J = 24 */
(PID.TID 0000.0001)                 4.229442419867491E+05,      /* J = 25 */
(PID.TID 0000.0001)                 4.123278331341585E+05,      /* J = 26 */
(PID.TID 0000.0001)                 3.997026045255871E+05,      /* J = 27 */
(PID.TID 0000.0001)                 3.851300650057323E+05,      /* J = 28 */
(PID.TID 0000.0001)                 3.686812105223082E+05,      /* J = 29 */
(PID.TID 0000.0001)                 3.504361782409254E+05,      /* J = 30 */
(PID.TID 0000.0001)                 3.304838561248741E+05,      /* J = 31 */
(PID.TID 0000.0001)                 3.089214498819034E+05,      /* J = 32 */
(PID.TID 0000.0001)                 2.858540093877838E+05,      /* J = 33 */
(PID.TID 0000.0001)                 2.613939168938713E+05,      /* J = 34 */
(PID.TID 0000.0001)                 2.356603395120765E+05,      /* J = 35 */
(PID.TID 0000.0001)                 2.087786486446736E+05,      /* J = 36 */
(PID.TID 0000.0001)                 1.808798091874300E+05,      /* J = 37 */
(PID.TID 0000.0001)                 1.520997414818001E+05,      /* J = 38 */
(PID.TID 0000.0001)                 1.225786591246834E+05,      /* J = 39 */
(PID.TID 0000.0001)                 9.246038586187513E+04       /* J = 40 */
(PID.TID 0000.0001)     ;
(PID.TID 0000.0001) dyF =  /* dyF(:,1,:,1) ( units: m ) */
(PID.TID 0000.0001)    90 @  4.447098934081552E+05              /* I =  1: 90 */
(PID.TID 0000.0001)     ;
(PID.TID 0000.0001) dyF =  /* dyF(1,:,1,:) ( units: m ) */
(PID.TID 0000.0001)    40 @  4.447098934081552E+05              /* J =  1: 40 */
(PID.TID 0000.0001)     ;
(PID.TID 0000.0001) dxG =  /* dxG(:,1,:,1) ( units: m ) */
(PID.TID 0000.0001)    90 @  7.722306258078101E+04              /* I =  1: 90 */
(PID.TID 0000.0001)     ;
(PID.TID 0000.0001) dxG =  /* dxG(1,:,1,:) ( units: m ) */
(PID.TID 0000.0001)                 7.722306258078101E+04,      /* J =  1 */
(PID.TID 0000.0001)                 1.075850604052271E+05,      /* J =  2 */
(PID.TID 0000.0001)                 1.374229146297914E+05,      /* J =  3 */
(PID.TID 0000.0001)                 1.665912582279823E+05,      /* J =  4 */
(PID.TID 0000.0001)                 1.949479859617814E+05,      /* J =  5 */
(PID.TID 0000.0001)                 2.223549467040777E+05,      /* J =  6 */
(PID.TID 0000.0001)                 2.486786164970726E+05,      /* J =  7 */
(PID.TID 0000.0001)                 2.737907490675810E+05,      /* J =  8 */
(PID.TID 0000.0001)                 2.975690006299821E+05,      /* J =  9 */
(PID.TID 0000.0001)                 3.198975259328452E+05,      /* J = 10 */
(PID.TID 0000.0001)                 3.406675426453503E+05,      /* J = 11 */
(PID.TID 0000.0001)                 3.597778613338690E+05,      /* J = 12 */
(PID.TID 0000.0001)                 3.771353784467131E+05,      /* J = 13 */
(PID.TID 0000.0001)                 3.926555299052806E+05,      /* J = 14 */
(PID.TID 0000.0001)                 4.062627030917454E+05,      /* J = 15 */
(PID.TID 0000.0001)                 4.178906052261313E+05,      /* J = 16 */
(PID.TID 0000.0001)                 4.274825863380723E+05,      /* J = 17 */
(PID.TID 0000.0001)                 4.349919152597734E+05,      /* J = 18 */
(PID.TID 0000.0001)                 4.403820072955634E+05,      /* J = 19 */
(PID.TID 0000.0001)                 4.436266024588540E+05,      /* J = 20 */
(PID.TID 0000.0001)                 4.447098934081552E+05,      /* J = 21 */
(PID.TID 0000.0001)                 4.436266024588540E+05,      /* J = 22 */
(PID.TID 0000.0001)                 4.403820072955634E+05,      /* J = 23 */
(PID.TID 0000.0001)                 4.349919152597734E+05,      /* J = 24 */
(PID.TID 0000.0001)                 4.274825863380723E+05,      /* J = 25 */
(PID.TID 0000.0001)                 4.178906052261313E+05,      /* J = 26 */
(PID.TID 0000.0001)                 4.062627030917454E+05,      /* J = 27 */
(PID.TID 0000.0001)                 3.926555299052806E+05,      /* J = 28 */
(PID.TID 0000.0001)                 3.771353784467131E+05,      /* J = 29 */
(PID.TID 0000.0001)                 3.597778613338690E+05,      /* J = 30 */
(PID.TID 0000.0001)                 3.406675426453503E+05,      /* J = 31 */
(PID.TID 0000.0001)                 3.198975259328452E+05,      /* J = 32 */
(PID.TID 0000.0001)                 2.975690006299821E+05,      /* J = 33 */
(PID.TID 0000.0001)                 2.737907490675810E+05,      /* J = 34 */
(PID.TID 0000.0001)                 2.486786164970726E+05,      /* J = 35 */
(PID.TID 0000.0001)                 2.223549467040777E+05,      /* J = 36 */
(PID.TID 0000.0001)                 1.949479859617814E+05,      /* J = 37 */
(PID.TID 0000.0001)                 1.665912582279823E+05,      /* J = 38 */
(PID.TID 0000.0001)                 1.374229146297914E+05,      /* J = 39 */
(PID.TID 0000.0001)                 1.075850604052271E+05       /* J = 40 */
(PID.TID 0000.0001)     ;
(PID.TID 0000.0001) dyG =  /* dyG(:,1,:,1) ( units: m ) */
(PID.TID 0000.0001)    90 @  4.447098934081552E+05              /* I =  1: 90 */
(PID.TID 0000.0001)     ;
(PID.TID 0000.0001) dyG =  /* dyG(1,:,1,:) ( units: m ) */
(PID.TID 0000.0001)    40 @  4.447098934081552E+05              /* J =  1: 40 */
(PID.TID 0000.0001)     ;
(PID.TID 0000.0001) dxC =  /* dxC(:,1,:,1) ( units: m ) */
(PID.TID 0000.0001)    90 @  9.246038586187513E+04              /* I =  1: 90 */
(PID.TID 0000.0001)     ;
(PID.TID 0000.0001) dxC =  /* dxC(1,:,1,:) ( units: m ) */
(PID.TID 0000.0001)                 9.246038586187513E+04,      /* J =  1 */
(PID.TID 0000.0001)                 1.225786591246834E+05,      /* J =  2 */
(PID.TID 0000.0001)                 1.520997414818001E+05,      /* J =  3 */
(PID.TID 0000.0001)                 1.808798091874300E+05,      /* J =  4 */
(PID.TID 0000.0001)                 2.087786486446736E+05,      /* J =  5 */
(PID.TID 0000.0001)                 2.356603395120765E+05,      /* J =  6 */
(PID.TID 0000.0001)                 2.613939168938713E+05,      /* J =  7 */
(PID.TID 0000.0001)                 2.858540093877838E+05,      /* J =  8 */
(PID.TID 0000.0001)                 3.089214498819034E+05,      /* J =  9 */
(PID.TID 0000.0001)                 3.304838561248741E+05,      /* J = 10 */
(PID.TID 0000.0001)                 3.504361782409254E+05,      /* J = 11 */
(PID.TID 0000.0001)                 3.686812105223082E+05,      /* J = 12 */
(PID.TID 0000.0001)                 3.851300650057323E+05,      /* J = 13 */
(PID.TID 0000.0001)                 3.997026045255871E+05,      /* J = 14 */
(PID.TID 0000.0001)                 4.123278331341585E+05,      /* J = 15 */
(PID.TID 0000.0001)                 4.229442419867491E+05,      /* J = 16 */
(PID.TID 0000.0001)                 4.315001090065870E+05,      /* J = 17 */
(PID.TID 0000.0001)                 4.379537508695838E+05,      /* J = 18 */
(PID.TID 0000.0001)                 4.422737260813012E+05,      /* J = 19 */
(PID.TID 0000.0001)     2 @  4.444389881567502E+05,             /* J = 20: 21 */
(PID.TID 0000.0001)                 4.422737260813012E+05,      /* J = 22 */
(PID.TID 0000.0001)                 4.379537508695838E+05,      /* J = 23 */
(PID.TID 0000.0001)                 4.315001090065870E+05,      /* J = 24 */
(PID.TID 0000.0001)                 4.229442419867491E+05,      /* J = 25 */
(PID.TID 0000.0001)                 4.123278331341585E+05,      /* J = 26 */
(PID.TID 0000.0001)                 3.997026045255871E+05,      /* J = 27 */
(PID.TID 0000.0001)                 3.851300650057323E+05,      /* J = 28 */
(PID.TID 0000.0001)                 3.686812105223082E+05,      /* J = 29 */
(PID.TID 0000.0001)                 3.504361782409254E+05,      /* J = 30 */
(PID.TID 0000.0001)                 3.304838561248741E+05,      /* J = 31 */
(PID.TID 0000.0001)                 3.089214498819034E+05,      /* J = 32 */
(PID.TID 0000.0001)                 2.858540093877838E+05,      /* J = 33 */
(PID.TID 0000.0001)                 2.613939168938713E+05,      /* J = 34 */
(PID.TID 0000.0001)                 2.356603395120765E+05,      /* J = 35 */
(PID.TID 0000.0001)                 2.087786486446736E+05,      /* J = 36 */
(PID.TID 0000.0001)                 1.808798091874300E+05,      /* J = 37 */
(PID.TID 0000.0001)                 1.520997414818001E+05,      /* J = 38 */
(PID.TID 0000.0001)                 1.225786591246834E+05,      /* J = 39 */
(PID.TID 0000.0001)                 9.246038586187513E+04       /* J = 40 */
(PID.TID 0000.0001)     ;
(PID.TID 0000.0001) dyC =  /* dyC(:,1,:,1) ( units: m ) */
(PID.TID 0000.0001)    90 @  4.447098934081552E+05              /* I =  1: 90 */
(PID.TID 0000.0001)     ;
(PID.TID 0000.0001) dyC =  /* dyC(1,:,1,:) ( units: m ) */
(PID.TID 0000.0001)    40 @  4.447098934081552E+05              /* J =  1: 40 */
(PID.TID 0000.0001)     ;
(PID.TID 0000.0001) dxV =  /* dxV(:,1,:,1) ( units: m ) */
(PID.TID 0000.0001)    90 @  7.722306258078101E+04              /* I =  1: 90 */
(PID.TID 0000.0001)     ;
(PID.TID 0000.0001) dxV =  /* dxV(1,:,1,:) ( units: m ) */
(PID.TID 0000.0001)                 7.722306258078101E+04,      /* J =  1 */
(PID.TID 0000.0001)                 1.075850604052271E+05,      /* J =  2 */
(PID.TID 0000.0001)                 1.374229146297914E+05,      /* J =  3 */
(PID.TID 0000.0001)                 1.665912582279823E+05,      /* J =  4 */
(PID.TID 0000.0001)                 1.949479859617814E+05,      /* J =  5 */
(PID.TID 0000.0001)                 2.223549467040777E+05,      /* J =  6 */
(PID.TID 0000.0001)                 2.486786164970726E+05,      /* J =  7 */
(PID.TID 0000.0001)                 2.737907490675810E+05,      /* J =  8 */
(PID.TID 0000.0001)                 2.975690006299821E+05,      /* J =  9 */
(PID.TID 0000.0001)                 3.198975259328452E+05,      /* J = 10 */
(PID.TID 0000.0001)                 3.406675426453503E+05,      /* J = 11 */
(PID.TID 0000.0001)                 3.597778613338690E+05,      /* J = 12 */
(PID.TID 0000.0001)                 3.771353784467131E+05,      /* J = 13 */
(PID.TID 0000.0001)                 3.926555299052806E+05,      /* J = 14 */
(PID.TID 0000.0001)                 4.062627030917454E+05,      /* J = 15 */
(PID.TID 0000.0001)                 4.178906052261313E+05,      /* J = 16 */
(PID.TID 0000.0001)                 4.274825863380723E+05,      /* J = 17 */
(PID.TID 0000.0001)                 4.349919152597734E+05,      /* J = 18 */
(PID.TID 0000.0001)                 4.403820072955634E+05,      /* J = 19 */
(PID.TID 0000.0001)                 4.436266024588540E+05,      /* J = 20 */
(PID.TID 0000.0001)                 4.447098934081552E+05,      /* J = 21 */
(PID.TID 0000.0001)                 4.436266024588540E+05,      /* J = 22 */
(PID.TID 0000.0001)                 4.403820072955634E+05,      /* J = 23 */
(PID.TID 0000.0001)                 4.349919152597734E+05,      /* J = 24 */
(PID.TID 0000.0001)                 4.274825863380723E+05,      /* J = 25 */
(PID.TID 0000.0001)                 4.178906052261313E+05,      /* J = 26 */
(PID.TID 0000.0001)                 4.062627030917454E+05,      /* J = 27 */
(PID.TID 0000.0001)                 3.926555299052806E+05,      /* J = 28 */
(PID.TID 0000.0001)                 3.771353784467131E+05,      /* J = 29 */
(PID.TID 0000.0001)                 3.597778613338690E+05,      /* J = 30 */
(PID.TID 0000.0001)                 3.406675426453503E+05,      /* J = 31 */
(PID.TID 0000.0001)                 3.198975259328452E+05,      /* J = 32 */
(PID.TID 0000.0001)                 2.975690006299821E+05,      /* J = 33 */
(PID.TID 0000.0001)                 2.737907490675810E+05,      /* J = 34 */
(PID.TID 0000.0001)                 2.486786164970726E+05,      /* J = 35 */
(PID.TID 0000.0001)                 2.223549467040777E+05,      /* J = 36 */
(PID.TID 0000.0001)                 1.949479859617814E+05,      /* J = 37 */
(PID.TID 0000.0001)                 1.665912582279823E+05,      /* J = 38 */
(PID.TID 0000.0001)                 1.374229146297914E+05,      /* J = 39 */
(PID.TID 0000.0001)                 1.075850604052271E+05       /* J = 40 */
(PID.TID 0000.0001)     ;
(PID.TID 0000.0001) dyU =  /* dyU(:,1,:,1) ( units: m ) */
(PID.TID 0000.0001)    90 @  4.447098934081552E+05              /* I =  1: 90 */
(PID.TID 0000.0001)     ;
(PID.TID 0000.0001) dyU =  /* dyU(1,:,1,:) ( units: m ) */
(PID.TID 0000.0001)    40 @  4.447098934081552E+05              /* J =  1: 40 */
(PID.TID 0000.0001)     ;
(PID.TID 0000.0001) rA  =  /* rA (:,1,:,1) ( units: m^2 ) */
(PID.TID 0000.0001)    90 @  4.110969866729047E+10              /* I =  1: 90 */
(PID.TID 0000.0001)     ;
(PID.TID 0000.0001) rA  =  /* rA (1,:,1,:) ( units: m^2 ) */
(PID.TID 0000.0001)                 4.110969866729047E+10,      /* J =  1 */
(PID.TID 0000.0001)                 5.450087291636665E+10,      /* J =  2 */
(PID.TID 0000.0001)                 6.762652439100235E+10,      /* J =  3 */
(PID.TID 0000.0001)                 8.042270623659998E+10,      /* J =  4 */
(PID.TID 0000.0001)                 9.282707674147523E+10,      /* J =  5 */
(PID.TID 0000.0001)                 1.047792030594103E+11,      /* J =  6 */
(PID.TID 0000.0001)                 1.162208556324093E+11,      /* J =  7 */
(PID.TID 0000.0001)                 1.270962918792468E+11,      /* J =  8 */
(PID.TID 0000.0001)                 1.373525277677229E+11,      /* J =  9 */
(PID.TID 0000.0001)                 1.469395959475426E+11,      /* J = 10 */
(PID.TID 0000.0001)                 1.558107891862220E+11,      /* J = 11 */
(PID.TID 0000.0001)                 1.639228879220326E+11,      /* J = 12 */
(PID.TID 0000.0001)                 1.712363708253573E+11,      /* J = 13 */
(PID.TID 0000.0001)                 1.777156073426415E+11,      /* J = 14 */
(PID.TID 0000.0001)                 1.833290312848623E+11,      /* J = 15 */
(PID.TID 0000.0001)                 1.880492946148330E+11,      /* J = 16 */
(PID.TID 0000.0001)                 1.918534006840893E+11,      /* J = 17 */
(PID.TID 0000.0001)                 1.947228162702492E+11,      /* J = 18 */
(PID.TID 0000.0001)                 1.966435618690094E+11,      /* J = 19 */
(PID.TID 0000.0001)     2 @  1.976062798008856E+11,             /* J = 20: 21 */
(PID.TID 0000.0001)                 1.966435618690094E+11,      /* J = 22 */
(PID.TID 0000.0001)                 1.947228162702492E+11,      /* J = 23 */
(PID.TID 0000.0001)                 1.918534006840893E+11,      /* J = 24 */
(PID.TID 0000.0001)                 1.880492946148330E+11,      /* J = 25 */
(PID.TID 0000.0001)                 1.833290312848623E+11,      /* J = 26 */
(PID.TID 0000.0001)                 1.777156073426415E+11,      /* J = 27 */
(PID.TID 0000.0001)                 1.712363708253573E+11,      /* J = 28 */
(PID.TID 0000.0001)                 1.639228879220326E+11,      /* J = 29 */
(PID.TID 0000.0001)                 1.558107891862220E+11,      /* J = 30 */
(PID.TID 0000.0001)                 1.469395959475426E+11,      /* J = 31 */
(PID.TID 0000.0001)                 1.373525277677229E+11,      /* J = 32 */
(PID.TID 0000.0001)                 1.270962918792468E+11,      /* J = 33 */
(PID.TID 0000.0001)                 1.162208556324093E+11,      /* J = 34 */
(PID.TID 0000.0001)                 1.047792030594103E+11,      /* J = 35 */
(PID.TID 0000.0001)                 9.282707674147523E+10,      /* J = 36 */
(PID.TID 0000.0001)                 8.042270623659998E+10,      /* J = 37 */
(PID.TID 0000.0001)                 6.762652439100235E+10,      /* J = 38 */
(PID.TID 0000.0001)                 5.450087291636665E+10,      /* J = 39 */
(PID.TID 0000.0001)                 4.110969866729047E+10       /* J = 40 */
(PID.TID 0000.0001)     ;
(PID.TID 0000.0001) rAw =  /* rAw(:,1,:,1) ( units: m^2 ) */
(PID.TID 0000.0001)    90 @  4.110969866729047E+10              /* I =  1: 90 */
(PID.TID 0000.0001)     ;
(PID.TID 0000.0001) rAw =  /* rAw(1,:,1,:) ( units: m^2 ) */
(PID.TID 0000.0001)                 4.110969866729047E+10,      /* J =  1 */
(PID.TID 0000.0001)                 5.450087291636665E+10,      /* J =  2 */
(PID.TID 0000.0001)                 6.762652439100235E+10,      /* J =  3 */
(PID.TID 0000.0001)                 8.042270623659998E+10,      /* J =  4 */
(PID.TID 0000.0001)                 9.282707674147523E+10,      /* J =  5 */
(PID.TID 0000.0001)                 1.047792030594103E+11,      /* J =  6 */
(PID.TID 0000.0001)                 1.162208556324093E+11,      /* J =  7 */
(PID.TID 0000.0001)                 1.270962918792468E+11,      /* J =  8 */
(PID.TID 0000.0001)                 1.373525277677229E+11,      /* J =  9 */
(PID.TID 0000.0001)                 1.469395959475426E+11,      /* J = 10 */
(PID.TID 0000.0001)                 1.558107891862220E+11,      /* J = 11 */
(PID.TID 0000.0001)                 1.639228879220326E+11,      /* J = 12 */
(PID.TID 0000.0001)                 1.712363708253573E+11,      /* J = 13 */
(PID.TID 0000.0001)                 1.777156073426415E+11,      /* J = 14 */
(PID.TID 0000.0001)                 1.833290312848623E+11,      /* J = 15 */
(PID.TID 0000.0001)                 1.880492946148330E+11,      /* J = 16 */
(PID.TID 0000.0001)                 1.918534006840893E+11,      /* J = 17 */
(PID.TID 0000.0001)                 1.947228162702492E+11,      /* J = 18 */
(PID.TID 0000.0001)                 1.966435618690094E+11,      /* J = 19 */
(PID.TID 0000.0001)     2 @  1.976062798008856E+11,             /* J = 20: 21 */
(PID.TID 0000.0001)                 1.966435618690094E+11,      /* J = 22 */
(PID.TID 0000.0001)                 1.947228162702492E+11,      /* J = 23 */
(PID.TID 0000.0001)                 1.918534006840893E+11,      /* J = 24 */
(PID.TID 0000.0001)                 1.880492946148330E+11,      /* J = 25 */
(PID.TID 0000.0001)                 1.833290312848623E+11,      /* J = 26 */
(PID.TID 0000.0001)                 1.777156073426415E+11,      /* J = 27 */
(PID.TID 0000.0001)                 1.712363708253573E+11,      /* J = 28 */
(PID.TID 0000.0001)                 1.639228879220326E+11,      /* J = 29 */
(PID.TID 0000.0001)                 1.558107891862220E+11,      /* J = 30 */
(PID.TID 0000.0001)                 1.469395959475426E+11,      /* J = 31 */
(PID.TID 0000.0001)                 1.373525277677229E+11,      /* J = 32 */
(PID.TID 0000.0001)                 1.270962918792468E+11,      /* J = 33 */
(PID.TID 0000.0001)                 1.162208556324093E+11,      /* J = 34 */
(PID.TID 0000.0001)                 1.047792030594103E+11,      /* J = 35 */
(PID.TID 0000.0001)                 9.282707674147523E+10,      /* J = 36 */
(PID.TID 0000.0001)                 8.042270623659998E+10,      /* J = 37 */
(PID.TID 0000.0001)                 6.762652439100235E+10,      /* J = 38 */
(PID.TID 0000.0001)                 5.450087291636665E+10,      /* J = 39 */
(PID.TID 0000.0001)                 4.110969866729047E+10       /* J = 40 */
(PID.TID 0000.0001)     ;
(PID.TID 0000.0001) rAs =  /* rAs(:,1,:,1) ( units: m^2 ) */
(PID.TID 0000.0001)    90 @  3.433488626798250E+10              /* I =  1: 90 */
(PID.TID 0000.0001)     ;
(PID.TID 0000.0001) rAs =  /* rAs(1,:,1,:) ( units: m^2 ) */
(PID.TID 0000.0001)                 3.433488626798250E+10,      /* J =  1 */
(PID.TID 0000.0001)                 4.783442523123625E+10,      /* J =  2 */
(PID.TID 0000.0001)                 6.110091968306414E+10,      /* J =  3 */
(PID.TID 0000.0001)                 7.406973659603818E+10,      /* J =  4 */
(PID.TID 0000.0001)                 8.667769319778079E+10,      /* J =  5 */
(PID.TID 0000.0001)                 9.886336479107463E+10,      /* J =  6 */
(PID.TID 0000.0001)                 1.105673840088173E+11,      /* J =  7 */
(PID.TID 0000.0001)                 1.217327300458638E+11,      /* J =  8 */
(PID.TID 0000.0001)                 1.323050064586578E+11,      /* J =  9 */
(PID.TID 0000.0001)                 1.422327061792377E+11,      /* J = 10 */
(PID.TID 0000.0001)                 1.514674624524945E+11,      /* J = 11 */
(PID.TID 0000.0001)                 1.599642844741385E+11,      /* J = 12 */
(PID.TID 0000.0001)                 1.676817765813788E+11,      /* J = 13 */
(PID.TID 0000.0001)                 1.745823399284268E+11,      /* J = 14 */
(PID.TID 0000.0001)                 1.806323556642996E+11,      /* J = 15 */
(PID.TID 0000.0001)                 1.858023487204767E+11,      /* J = 16 */
(PID.TID 0000.0001)                 1.900671314104743E+11,      /* J = 17 */
(PID.TID 0000.0001)                 1.934059261417216E+11,      /* J = 18 */
(PID.TID 0000.0001)                 1.958024666419019E+11,      /* J = 19 */
(PID.TID 0000.0001)                 1.972450772065981E+11,      /* J = 20 */
(PID.TID 0000.0001)                 1.977267295821495E+11,      /* J = 21 */
(PID.TID 0000.0001)                 1.972450772065981E+11,      /* J = 22 */
(PID.TID 0000.0001)                 1.958024666419019E+11,      /* J = 23 */
(PID.TID 0000.0001)                 1.934059261417216E+11,      /* J = 24 */
(PID.TID 0000.0001)                 1.900671314104743E+11,      /* J = 25 */
(PID.TID 0000.0001)                 1.858023487204767E+11,      /* J = 26 */
(PID.TID 0000.0001)                 1.806323556642996E+11,      /* J = 27 */
(PID.TID 0000.0001)                 1.745823399284268E+11,      /* J = 28 */
(PID.TID 0000.0001)                 1.676817765813788E+11,      /* J = 29 */
(PID.TID 0000.0001)                 1.599642844741385E+11,      /* J = 30 */
(PID.TID 0000.0001)                 1.514674624524945E+11,      /* J = 31 */
(PID.TID 0000.0001)                 1.422327061792377E+11,      /* J = 32 */
(PID.TID 0000.0001)                 1.323050064586578E+11,      /* J = 33 */
(PID.TID 0000.0001)                 1.217327300458638E+11,      /* J = 34 */
(PID.TID 0000.0001)                 1.105673840088173E+11,      /* J = 35 */
(PID.TID 0000.0001)                 9.886336479107463E+10,      /* J = 36 */
(PID.TID 0000.0001)                 8.667769319778079E+10,      /* J = 37 */
(PID.TID 0000.0001)                 7.406973659603818E+10,      /* J = 38 */
(PID.TID 0000.0001)                 6.110091968306414E+10,      /* J = 39 */
(PID.TID 0000.0001)                 4.783442523123625E+10       /* J = 40 */
(PID.TID 0000.0001)     ;
(PID.TID 0000.0001) globalArea = /* Integrated horizontal Area (m^2) */
(PID.TID 0000.0001)                 3.335490855875281E+14
(PID.TID 0000.0001)     ;
(PID.TID 0000.0001) // =======================================================
(PID.TID 0000.0001) // End of Model config. summary
(PID.TID 0000.0001) // =======================================================
(PID.TID 0000.0001) 
(PID.TID 0000.0001) == Packages configuration : Check & print summary ==
(PID.TID 0000.0001) 
(PID.TID 0000.0001) GMREDI_CHECK: #define GMREDI
(PID.TID 0000.0001) GM_AdvForm =     /* if FALSE => use SkewFlux Form */
(PID.TID 0000.0001)                   T
(PID.TID 0000.0001)     ;
(PID.TID 0000.0001) GM_InMomAsStress = /* if TRUE => apply as Eddy Stress */
(PID.TID 0000.0001)                   F
(PID.TID 0000.0001)     ;
(PID.TID 0000.0001) GM_AdvSeparate = /* Calc Bolus & Euler Adv. separately */
(PID.TID 0000.0001)                   F
(PID.TID 0000.0001)     ;
(PID.TID 0000.0001) GM_ExtraDiag =   /* Tensor Extra Diag (line 1&2) non 0 */
(PID.TID 0000.0001)                   T
(PID.TID 0000.0001)     ;
(PID.TID 0000.0001) GM_isopycK =    /* Background Isopyc. Diffusivity [m^2/s] */
(PID.TID 0000.0001)                 1.100000000000000E+03
(PID.TID 0000.0001)     ;
(PID.TID 0000.0001) GM_skewflx*K =  /* Background GM_SkewFlx Diffusivity [m^2/s] */
(PID.TID 0000.0001)                 0.000000000000000E+00
(PID.TID 0000.0001)     ;
(PID.TID 0000.0001) GM_advec*K =    /* Backg. GM-Advec(=Bolus) Diffusivity [m^2/s]*/
(PID.TID 0000.0001)                 9.000000000000000E+02
(PID.TID 0000.0001)     ;
(PID.TID 0000.0001) GM_Kmin_horiz = /* Minimum Horizontal Diffusivity [m^2/s] */
(PID.TID 0000.0001)                 5.000000000000000E+01
(PID.TID 0000.0001)     ;
(PID.TID 0000.0001) GM_Visbeck_alpha = /* Visbeck alpha coeff. [-] */
(PID.TID 0000.0001)                 0.000000000000000E+00
(PID.TID 0000.0001)     ;
(PID.TID 0000.0001) GM_Small_Number =  /* epsilon used in slope calc */
(PID.TID 0000.0001)                 9.999999999999999E-21
(PID.TID 0000.0001)     ;
(PID.TID 0000.0001) GM_slopeSqCutoff = /* Slope^2 cut-off value */
(PID.TID 0000.0001)                 1.000000000000000E+08
(PID.TID 0000.0001)     ;
(PID.TID 0000.0001) GM_taper_scheme =  /* Type of Tapering/Clipping scheme */
(PID.TID 0000.0001)               'dm95                                    '
(PID.TID 0000.0001)     ;
(PID.TID 0000.0001) GM_maxSlope =  /* Maximum Slope (Tapering/Clipping) */
(PID.TID 0000.0001)                 1.000000000000000E-02
(PID.TID 0000.0001)     ;
(PID.TID 0000.0001) GM_facTrL2dz = /* Minimum Trans.Layer Thick. (factor of dz) */
(PID.TID 0000.0001)                 1.000000000000000E+00
(PID.TID 0000.0001)     ;
(PID.TID 0000.0001) GM_facTrL2ML = /* Max.Trans.Layer Thick. (factor of MxL Depth)*/
(PID.TID 0000.0001)                 5.000000000000000E+00
(PID.TID 0000.0001)     ;
(PID.TID 0000.0001) GM_maxTransLay = /* Maximum Transition Layer Thickness [m] */
(PID.TID 0000.0001)                 5.000000000000000E+02
(PID.TID 0000.0001)     ;
(PID.TID 0000.0001) GM_UseBVP = /* if TRUE => use bvp a la Ferrari et al. (2010) */
(PID.TID 0000.0001)                   F
(PID.TID 0000.0001)     ;
(PID.TID 0000.0001) GM_BVP_ModeNumber = /* Vertical mode number for BVP wave speed */
(PID.TID 0000.0001)                       1
(PID.TID 0000.0001)     ;
(PID.TID 0000.0001) GM_BVP_cMin = /* Minimum wave speed for BVP [m/s] */
(PID.TID 0000.0001)                 1.000000000000000E-01
(PID.TID 0000.0001)     ;
(PID.TID 0000.0001) GM_useSubMeso = /* if TRUE => use Sub-Meso param. (B.Fox-Kemper) */
(PID.TID 0000.0001)                   F
(PID.TID 0000.0001)     ;
(PID.TID 0000.0001) subMeso_Ceff = /* efficiency coeff. of Mixed-Layer Eddies [-] */
(PID.TID 0000.0001)                 7.000000000000001E-02
(PID.TID 0000.0001)     ;
(PID.TID 0000.0001) subMeso_invTau = /* inverse of Sub-Meso mixing time-scale [/s] */
(PID.TID 0000.0001)                 2.000000000000000E-06
(PID.TID 0000.0001)     ;
(PID.TID 0000.0001) subMeso_LfMin = /* minimum length-scale "Lf" [m] */
(PID.TID 0000.0001)                 1.000000000000000E+03
(PID.TID 0000.0001)     ;
(PID.TID 0000.0001) subMeso_Lmax = /* maximum grid-scale length [m] */
(PID.TID 0000.0001)                 1.100000000000000E+05
(PID.TID 0000.0001)     ;
(PID.TID 0000.0001) PTRACERS_CHECK: #define ALLOW_PTRACERS
(PID.TID 0000.0001) // ===================================
(PID.TID 0000.0001) // PTRACERS parameters
(PID.TID 0000.0001) // ===================================
(PID.TID 0000.0001) PTRACERS_numInUse = /* number of tracers */
(PID.TID 0000.0001)                       1
(PID.TID 0000.0001)     ;
(PID.TID 0000.0001) PTRACERS_Iter0 = /* timestep number when tracers are initialized */
(PID.TID 0000.0001)                       0
(PID.TID 0000.0001)     ;
(PID.TID 0000.0001) PTRACERS_startAllTrc =/* all tracers start @ startTime */
(PID.TID 0000.0001)                   T
(PID.TID 0000.0001)     ;
(PID.TID 0000.0001) PTRACERS_doAB_onGpTr =/* apply AB on Tendencies (rather than on Tracers) */
(PID.TID 0000.0001)                   T
(PID.TID 0000.0001)     ;
(PID.TID 0000.0001) PTRACERS_addSrelax2EmP =/* add Salt relaxation to EmP */
(PID.TID 0000.0001)                   F
(PID.TID 0000.0001)     ;
(PID.TID 0000.0001) PTRACERS_dTLev =   /* Ptracer timestep ( s ) */
(PID.TID 0000.0001)    20 @  8.640000000000000E+04              /* K =  1: 20 */
(PID.TID 0000.0001)     ;
(PID.TID 0000.0001) PTRACERS_monitorFreq = /* Frequency^-1 for monitor output (s) */
(PID.TID 0000.0001)                 4.320000000000000E+04
(PID.TID 0000.0001)     ;
(PID.TID 0000.0001) PTRACERS_dumpFreq = /* Frequency^-1 for snapshot output (s) */
(PID.TID 0000.0001)                 8.640000000000000E+04
(PID.TID 0000.0001)     ;
(PID.TID 0000.0001) PTRACERS_taveFreq = /* Frequency^-1 for time-Aver. output (s) */
(PID.TID 0000.0001)                 0.000000000000000E+00
(PID.TID 0000.0001)     ;
(PID.TID 0000.0001) PTRACERS_useRecords = /* all tracers in 1 file */
(PID.TID 0000.0001)                   F
(PID.TID 0000.0001)     ;
(PID.TID 0000.0001) PTRACERS_timeave_mnc = /* use MNC for Tave output */
(PID.TID 0000.0001)                   F
(PID.TID 0000.0001)     ;
(PID.TID 0000.0001) PTRACERS_snapshot_mnc = /* use MNC for snapshot output */
(PID.TID 0000.0001)                   F
(PID.TID 0000.0001)     ;
(PID.TID 0000.0001) PTRACERS_pickup_write_mnc = /* use MNC for writing pickups */
(PID.TID 0000.0001)                   F
(PID.TID 0000.0001)     ;
(PID.TID 0000.0001) PTRACERS_pickup_read_mnc = /* use MNC for reading pickups */
(PID.TID 0000.0001)                   F
(PID.TID 0000.0001)     ;
(PID.TID 0000.0001)  -----------------------------------
(PID.TID 0000.0001)  tracer number :    1
(PID.TID 0000.0001) PTRACERS_names = /* Tracer short name */
(PID.TID 0000.0001)               ''
(PID.TID 0000.0001)     ;
(PID.TID 0000.0001) PTRACERS_long_names = /* Tracer long name */
(PID.TID 0000.0001)               ''
(PID.TID 0000.0001)     ;
(PID.TID 0000.0001) PTRACERS_ioLabel = /* tracer IO Label */
(PID.TID 0000.0001)               '01'
(PID.TID 0000.0001)     ;
(PID.TID 0000.0001) PTRACERS_advScheme = /* Advection Scheme */
(PID.TID 0000.0001)                       2
(PID.TID 0000.0001)     ;
(PID.TID 0000.0001) PTRACERS_SOM_Advection = /* tracer uses SOM advection scheme */
(PID.TID 0000.0001)                   F
(PID.TID 0000.0001)     ;
(PID.TID 0000.0001) PTRACERS_ImplVertAdv = /* implicit vert. advection flag */
(PID.TID 0000.0001)                   F
(PID.TID 0000.0001)     ;
(PID.TID 0000.0001) PTRACERS_MultiDimAdv = /* tracer uses Multi-Dim advection */
(PID.TID 0000.0001)                   F
(PID.TID 0000.0001)     ;
(PID.TID 0000.0001) PTRACERS_AdamsBashGtr = /* apply AB on tracer tendency */
(PID.TID 0000.0001)                   T
(PID.TID 0000.0001)     ;
(PID.TID 0000.0001) PTRACERS_AdamsBash_Tr = /* apply AB on passive tracer */
(PID.TID 0000.0001)                   F
(PID.TID 0000.0001)     ;
(PID.TID 0000.0001) PTRACERS_diffKh = /* Laplacian Diffusivity */
(PID.TID 0000.0001)                 1.000000000000000E+03
(PID.TID 0000.0001)     ;
(PID.TID 0000.0001) PTRACERS_diffK4 = /* Biharmonic Diffusivity */
(PID.TID 0000.0001)                 0.000000000000000E+00
(PID.TID 0000.0001)     ;
(PID.TID 0000.0001) PTRACERS_diffKrNr = /* Vertical Diffusivity */
(PID.TID 0000.0001)    20 @  3.000000000000000E-05              /* K =  1: 20 */
(PID.TID 0000.0001)     ;
(PID.TID 0000.0001) PTRACERS_useGMRedi = /* apply GM-Redi */
(PID.TID 0000.0001)                   T
(PID.TID 0000.0001)     ;
(PID.TID 0000.0001) PTRACERS_useDWNSLP = /* apply DOWN-SLOPE Flow */
(PID.TID 0000.0001)                   F
(PID.TID 0000.0001)     ;
(PID.TID 0000.0001) PTRACERS_useKPP = /* apply KPP scheme */
(PID.TID 0000.0001)                   F
(PID.TID 0000.0001)     ;
(PID.TID 0000.0001) PTRACERS_ref = /* Reference vertical profile */
(PID.TID 0000.0001)                 1.000000000000000E+00,      /* K =  1 */
(PID.TID 0000.0001)    19 @  0.000000000000000E+00              /* K =  2: 20 */
(PID.TID 0000.0001)     ;
(PID.TID 0000.0001) PTRACERS_EvPrRn =/* tracer conc. in Evap. & Rain */
(PID.TID 0000.0001)                 1.234567000000000E+05
(PID.TID 0000.0001)     ;
(PID.TID 0000.0001)  -----------------------------------
(PID.TID 0000.0001) CTRL_CHECK: ctrl package
(PID.TID 0000.0001) COST_CHECK: cost package
(PID.TID 0000.0001) GRDCHK_CHECK: grdchk package
(PID.TID 0000.0001) GAD_CHECK: #define ALLOW_GENERIC_ADVDIFF
(PID.TID 0000.0001) // =======================================================
(PID.TID 0000.0001) // Check Model config. (CONFIG_CHECK):
(PID.TID 0000.0001) // CONFIG_CHECK : Normal End
(PID.TID 0000.0001) // =======================================================
(PID.TID 0000.0001) 
(PID.TID 0000.0001) Start initial hydrostatic pressure computation
(PID.TID 0000.0001) Pressure is predetermined for buoyancyRelation OCEANIC
(PID.TID 0000.0001) 
(PID.TID 0000.0001) // =======================================================
(PID.TID 0000.0001) // Begin MONITOR dynamic field statistics
(PID.TID 0000.0001) // =======================================================
(PID.TID 0000.0001) %MON time_tsnumber                =                     0
(PID.TID 0000.0001) %MON time_secondsf                =   0.0000000000000E+00
(PID.TID 0000.0001) %MON dynstat_eta_max              =   0.0000000000000E+00
(PID.TID 0000.0001) %MON dynstat_eta_min              =   0.0000000000000E+00
(PID.TID 0000.0001) %MON dynstat_eta_mean             =   0.0000000000000E+00
(PID.TID 0000.0001) %MON dynstat_eta_sd               =   0.0000000000000E+00
(PID.TID 0000.0001) %MON dynstat_eta_del2             =   0.0000000000000E+00
(PID.TID 0000.0001) %MON dynstat_uvel_max             =   0.0000000000000E+00
(PID.TID 0000.0001) %MON dynstat_uvel_min             =   0.0000000000000E+00
(PID.TID 0000.0001) %MON dynstat_uvel_mean            =   0.0000000000000E+00
(PID.TID 0000.0001) %MON dynstat_uvel_sd              =   0.0000000000000E+00
(PID.TID 0000.0001) %MON dynstat_uvel_del2            =   0.0000000000000E+00
(PID.TID 0000.0001) %MON dynstat_vvel_max             =   0.0000000000000E+00
(PID.TID 0000.0001) %MON dynstat_vvel_min             =   0.0000000000000E+00
(PID.TID 0000.0001) %MON dynstat_vvel_mean            =   0.0000000000000E+00
(PID.TID 0000.0001) %MON dynstat_vvel_sd              =   0.0000000000000E+00
(PID.TID 0000.0001) %MON dynstat_vvel_del2            =   0.0000000000000E+00
(PID.TID 0000.0001) %MON dynstat_wvel_max             =   0.0000000000000E+00
(PID.TID 0000.0001) %MON dynstat_wvel_min             =   0.0000000000000E+00
(PID.TID 0000.0001) %MON dynstat_wvel_mean            =   0.0000000000000E+00
(PID.TID 0000.0001) %MON dynstat_wvel_sd              =   0.0000000000000E+00
(PID.TID 0000.0001) %MON dynstat_wvel_del2            =   0.0000000000000E+00
(PID.TID 0000.0001) %MON dynstat_theta_max            =   2.9329580307007E+01
(PID.TID 0000.0001) %MON dynstat_theta_min            =  -1.8496928215027E+00
(PID.TID 0000.0001) %MON dynstat_theta_mean           =   3.4434668483202E+00
(PID.TID 0000.0001) %MON dynstat_theta_sd             =   4.2513626348502E+00
(PID.TID 0000.0001) %MON dynstat_theta_del2           =   5.1755281830340E-03
(PID.TID 0000.0001) %MON dynstat_salt_max             =   3.7439460754395E+01
(PID.TID 0000.0001) %MON dynstat_salt_min             =   3.1028352737427E+01
(PID.TID 0000.0001) %MON dynstat_salt_mean            =   3.4718545511620E+01
(PID.TID 0000.0001) %MON dynstat_salt_sd              =   2.8229416934120E-01
(PID.TID 0000.0001) %MON dynstat_salt_del2            =   8.2249504761060E-04
(PID.TID 0000.0001) %MON forcing_qnet_max             =   0.0000000000000E+00
(PID.TID 0000.0001) %MON forcing_qnet_min             =   0.0000000000000E+00
(PID.TID 0000.0001) %MON forcing_qnet_mean            =   0.0000000000000E+00
(PID.TID 0000.0001) %MON forcing_qnet_sd              =   0.0000000000000E+00
(PID.TID 0000.0001) %MON forcing_qnet_del2            =   0.0000000000000E+00
(PID.TID 0000.0001) %MON forcing_qsw_max              =   0.0000000000000E+00
(PID.TID 0000.0001) %MON forcing_qsw_min              =   0.0000000000000E+00
(PID.TID 0000.0001) %MON forcing_qsw_mean             =   0.0000000000000E+00
(PID.TID 0000.0001) %MON forcing_qsw_sd               =   0.0000000000000E+00
(PID.TID 0000.0001) %MON forcing_qsw_del2             =   0.0000000000000E+00
(PID.TID 0000.0001) %MON forcing_empmr_max            =   0.0000000000000E+00
(PID.TID 0000.0001) %MON forcing_empmr_min            =   0.0000000000000E+00
(PID.TID 0000.0001) %MON forcing_empmr_mean           =   0.0000000000000E+00
(PID.TID 0000.0001) %MON forcing_empmr_sd             =   0.0000000000000E+00
(PID.TID 0000.0001) %MON forcing_empmr_del2           =   0.0000000000000E+00
(PID.TID 0000.0001) %MON forcing_fu_max               =   1.6004334390163E-01
(PID.TID 0000.0001) %MON forcing_fu_min               =  -1.0329221189022E-01
(PID.TID 0000.0001) %MON forcing_fu_mean              =   4.1280488583042E-03
(PID.TID 0000.0001) %MON forcing_fu_sd                =   5.5800359441598E-02
(PID.TID 0000.0001) %MON forcing_fu_del2              =   3.2370368543277E-04
(PID.TID 0000.0001) %MON forcing_fv_max               =   8.4633164107800E-02
(PID.TID 0000.0001) %MON forcing_fv_min               =  -7.0490099489689E-02
(PID.TID 0000.0001) %MON forcing_fv_mean              =   2.8803575798275E-03
(PID.TID 0000.0001) %MON forcing_fv_sd                =   2.2193297771215E-02
(PID.TID 0000.0001) %MON forcing_fv_del2              =   2.1170835219132E-04
(PID.TID 0000.0001) %MON trAdv_CFL_u_max              =   0.0000000000000E+00
(PID.TID 0000.0001) %MON trAdv_CFL_v_max              =   0.0000000000000E+00
(PID.TID 0000.0001) %MON trAdv_CFL_w_max              =   0.0000000000000E+00
(PID.TID 0000.0001) %MON advcfl_uvel_max              =   0.0000000000000E+00
(PID.TID 0000.0001) %MON advcfl_vvel_max              =   0.0000000000000E+00
(PID.TID 0000.0001) %MON advcfl_wvel_max              =   0.0000000000000E+00
(PID.TID 0000.0001) %MON advcfl_W_hf_max              =   0.0000000000000E+00
(PID.TID 0000.0001) %MON pe_b_mean                    =   0.0000000000000E+00
(PID.TID 0000.0001) %MON ke_max                       =   0.0000000000000E+00
(PID.TID 0000.0001) %MON ke_mean                      =   0.0000000000000E+00
(PID.TID 0000.0001) %MON ke_vol                       =   1.4474490094807E+18
(PID.TID 0000.0001) %MON vort_r_min                   =   0.0000000000000E+00
(PID.TID 0000.0001) %MON vort_r_max                   =   0.0000000000000E+00
(PID.TID 0000.0001) %MON vort_a_mean                  =  -1.8620194793381E-05
(PID.TID 0000.0001) %MON vort_a_sd                    =   7.3819348238724E-05
(PID.TID 0000.0001) %MON vort_p_mean                  =  -2.1817369821813E-05
(PID.TID 0000.0001) %MON vort_p_sd                    =   1.0010250762040E-04
(PID.TID 0000.0001) %MON surfExpan_theta_mean         =   0.0000000000000E+00
(PID.TID 0000.0001) %MON surfExpan_salt_mean          =   0.0000000000000E+00
(PID.TID 0000.0001) // =======================================================
(PID.TID 0000.0001) // End MONITOR dynamic field statistics
(PID.TID 0000.0001) // =======================================================
(PID.TID 0000.0001) // =======================================================
(PID.TID 0000.0001) // Begin MONITOR ptracer field statistics
(PID.TID 0000.0001) // =======================================================
(PID.TID 0000.0001) %MON trcstat_ptracer01_max        =   1.0000000000000E+00
(PID.TID 0000.0001) %MON trcstat_ptracer01_min        =   0.0000000000000E+00
(PID.TID 0000.0001) %MON trcstat_ptracer01_mean       =   1.1521963240253E-02
(PID.TID 0000.0001) %MON trcstat_ptracer01_sd         =   1.0672023052516E-01
(PID.TID 0000.0001) %MON trcstat_ptracer01_del2       =   0.0000000000000E+00
(PID.TID 0000.0001) // =======================================================
(PID.TID 0000.0001) // End MONITOR ptracers field statistics
(PID.TID 0000.0001) // =======================================================
(PID.TID 0000.0001) SOLVE_FOR_PRESSURE: putPmEinXvector =    F
 cg2d: Sum(rhs),rhsMax =   3.46389583683049E-14  8.55254939901145E+00
(PID.TID 0000.0001)      cg2d_init_res =   2.78780403600002E+01
(PID.TID 0000.0001)      cg2d_iters(min,last) =      -1     193
(PID.TID 0000.0001)      cg2d_last_res =   1.05028266342164E-17
(PID.TID 0000.0001) // =======================================================
(PID.TID 0000.0001) // Begin MONITOR dynamic field statistics
(PID.TID 0000.0001) // =======================================================
(PID.TID 0000.0001) %MON time_tsnumber                =                     1
(PID.TID 0000.0001) %MON time_secondsf                =   8.6400000000000E+04
(PID.TID 0000.0001) %MON dynstat_eta_max              =   1.6743052600423E+00
(PID.TID 0000.0001) %MON dynstat_eta_min              =  -1.3455863869853E+00
(PID.TID 0000.0001) %MON dynstat_eta_mean             =  -9.1347124955630E-17
(PID.TID 0000.0001) %MON dynstat_eta_sd               =   4.3408438286638E-01
(PID.TID 0000.0001) %MON dynstat_eta_del2             =   3.4693072840009E-03
(PID.TID 0000.0001) %MON dynstat_uvel_max             =   7.6568006879409E-02
(PID.TID 0000.0001) %MON dynstat_uvel_min             =  -9.9209029407204E-02
(PID.TID 0000.0001) %MON dynstat_uvel_mean            =  -1.0862912534280E-03
(PID.TID 0000.0001) %MON dynstat_uvel_sd              =   3.1095830800429E-03
(PID.TID 0000.0001) %MON dynstat_uvel_del2            =   3.2885831448895E-05
(PID.TID 0000.0001) %MON dynstat_vvel_max             =   9.0871363656057E-02
(PID.TID 0000.0001) %MON dynstat_vvel_min             =  -1.3005606017108E-01
(PID.TID 0000.0001) %MON dynstat_vvel_mean            =   1.2707164556280E-03
(PID.TID 0000.0001) %MON dynstat_vvel_sd              =   4.9820272816924E-03
(PID.TID 0000.0001) %MON dynstat_vvel_del2            =   4.0045244193533E-05
(PID.TID 0000.0001) %MON dynstat_wvel_max             =   4.4119853376755E-04
(PID.TID 0000.0001) %MON dynstat_wvel_min             =  -2.9804148516926E-04
(PID.TID 0000.0001) %MON dynstat_wvel_mean            =  -9.5396253396687E-08
(PID.TID 0000.0001) %MON dynstat_wvel_sd              =   1.7868311507756E-05
(PID.TID 0000.0001) %MON dynstat_wvel_del2            =   1.9816405776776E-07
(PID.TID 0000.0001) %MON dynstat_theta_max            =   2.9327528776393E+01
(PID.TID 0000.0001) %MON dynstat_theta_min            =  -1.8472228823895E+00
(PID.TID 0000.0001) %MON dynstat_theta_mean           =   3.4433462898240E+00
(PID.TID 0000.0001) %MON dynstat_theta_sd             =   4.2506093918143E+00
(PID.TID 0000.0001) %MON dynstat_theta_del2           =   5.1206594740196E-03
(PID.TID 0000.0001) %MON dynstat_salt_max             =   3.7438418700615E+01
(PID.TID 0000.0001) %MON dynstat_salt_min             =   3.1031048837916E+01
(PID.TID 0000.0001) %MON dynstat_salt_mean            =   3.4718541240033E+01
(PID.TID 0000.0001) %MON dynstat_salt_sd              =   2.8214266175496E-01
(PID.TID 0000.0001) %MON dynstat_salt_del2            =   8.2015421416624E-04
(PID.TID 0000.0001) %MON forcing_qnet_max             =   0.0000000000000E+00
(PID.TID 0000.0001) %MON forcing_qnet_min             =   0.0000000000000E+00
(PID.TID 0000.0001) %MON forcing_qnet_mean            =   0.0000000000000E+00
(PID.TID 0000.0001) %MON forcing_qnet_sd              =   0.0000000000000E+00
(PID.TID 0000.0001) %MON forcing_qnet_del2            =   0.0000000000000E+00
(PID.TID 0000.0001) %MON forcing_qsw_max              =   0.0000000000000E+00
(PID.TID 0000.0001) %MON forcing_qsw_min              =   0.0000000000000E+00
(PID.TID 0000.0001) %MON forcing_qsw_mean             =   0.0000000000000E+00
(PID.TID 0000.0001) %MON forcing_qsw_sd               =   0.0000000000000E+00
(PID.TID 0000.0001) %MON forcing_qsw_del2             =   0.0000000000000E+00
(PID.TID 0000.0001) %MON forcing_empmr_max            =   0.0000000000000E+00
(PID.TID 0000.0001) %MON forcing_empmr_min            =   0.0000000000000E+00
(PID.TID 0000.0001) %MON forcing_empmr_mean           =   0.0000000000000E+00
(PID.TID 0000.0001) %MON forcing_empmr_sd             =   0.0000000000000E+00
(PID.TID 0000.0001) %MON forcing_empmr_del2           =   0.0000000000000E+00
(PID.TID 0000.0001) %MON forcing_fu_max               =   1.6004334390163E-01
(PID.TID 0000.0001) %MON forcing_fu_min               =  -1.0329221189022E-01
(PID.TID 0000.0001) %MON forcing_fu_mean              =   4.1280488583042E-03
(PID.TID 0000.0001) %MON forcing_fu_sd                =   5.5800359441598E-02
(PID.TID 0000.0001) %MON forcing_fu_del2              =   3.2370368543277E-04
(PID.TID 0000.0001) %MON forcing_fv_max               =   8.4633164107800E-02
(PID.TID 0000.0001) %MON forcing_fv_min               =  -7.0490099489689E-02
(PID.TID 0000.0001) %MON forcing_fv_mean              =   2.8803575798275E-03
(PID.TID 0000.0001) %MON forcing_fv_sd                =   2.2193297771215E-02
(PID.TID 0000.0001) %MON forcing_fv_del2              =   2.1170835219132E-04
(PID.TID 0000.0001) %MON trAdv_CFL_u_max              =   3.4396042875414E-02
(PID.TID 0000.0001) %MON trAdv_CFL_v_max              =   2.5477453623859E-02
(PID.TID 0000.0001) %MON trAdv_CFL_w_max              =   1.4418344094802E-01
(PID.TID 0000.0001) %MON advcfl_uvel_max              =   3.4389055671184E-02
(PID.TID 0000.0001) %MON advcfl_vvel_max              =   2.5267806642809E-02
(PID.TID 0000.0001) %MON advcfl_wvel_max              =   1.5537798739418E-01
(PID.TID 0000.0001) %MON advcfl_W_hf_max              =   1.7367998966642E-01
(PID.TID 0000.0001) %MON pe_b_mean                    =   2.1298244853148E-04
(PID.TID 0000.0001) %MON ke_max                       =   4.9157938604515E-03
(PID.TID 0000.0001) %MON ke_mean                      =   1.6900689799910E-05
(PID.TID 0000.0001) %MON ke_vol                       =   1.4474490094807E+18
(PID.TID 0000.0001) %MON vort_r_min                   =  -3.0400601742071E-07
(PID.TID 0000.0001) %MON vort_r_max                   =   2.9340104619709E-07
(PID.TID 0000.0001) %MON vort_a_mean                  =  -1.8620194793382E-05
(PID.TID 0000.0001) %MON vort_a_sd                    =   7.3819142035417E-05
(PID.TID 0000.0001) %MON vort_p_mean                  =  -2.1817369821813E-05
(PID.TID 0000.0001) %MON vort_p_sd                    =   1.0010207052842E-04
(PID.TID 0000.0001) %MON surfExpan_theta_mean         =   6.0551875386680E-06
(PID.TID 0000.0001) %MON surfExpan_salt_mean          =   2.1454532069172E-07
(PID.TID 0000.0001) // =======================================================
(PID.TID 0000.0001) // End MONITOR dynamic field statistics
(PID.TID 0000.0001) // =======================================================
(PID.TID 0000.0001) // =======================================================
(PID.TID 0000.0001) // Begin MONITOR ptracer field statistics
(PID.TID 0000.0001) // =======================================================
(PID.TID 0000.0001) %MON trcstat_ptracer01_max        =   1.0087239105266E+00
(PID.TID 0000.0001) %MON trcstat_ptracer01_min        =  -1.4934815651088E-02
(PID.TID 0000.0001) %MON trcstat_ptracer01_mean       =   1.1522019643873E-02
(PID.TID 0000.0001) %MON trcstat_ptracer01_sd         =   1.0643598821940E-01
(PID.TID 0000.0001) %MON trcstat_ptracer01_del2       =   2.8303064171967E-05
(PID.TID 0000.0001) // =======================================================
(PID.TID 0000.0001) // End MONITOR ptracers field statistics
(PID.TID 0000.0001) // =======================================================
 cg2d: Sum(rhs),rhsMax =   4.08562073062058E-14  8.76214364093780E+00
(PID.TID 0000.0001)      cg2d_init_res =   2.73536799102506E+00
(PID.TID 0000.0001)      cg2d_iters(min,last) =      -1     188
(PID.TID 0000.0001)      cg2d_last_res =   1.07458777904700E-17
(PID.TID 0000.0001) // =======================================================
(PID.TID 0000.0001) // Begin MONITOR dynamic field statistics
(PID.TID 0000.0001) // =======================================================
(PID.TID 0000.0001) %MON time_tsnumber                =                     2
(PID.TID 0000.0001) %MON time_secondsf                =   1.7280000000000E+05
(PID.TID 0000.0001) %MON dynstat_eta_max              =   2.1288805460599E+00
(PID.TID 0000.0001) %MON dynstat_eta_min              =  -2.1172603558165E+00
(PID.TID 0000.0001) %MON dynstat_eta_mean             =  -1.3116510250039E-16
(PID.TID 0000.0001) %MON dynstat_eta_sd               =   6.7521108338827E-01
(PID.TID 0000.0001) %MON dynstat_eta_del2             =   3.5037809160917E-03
(PID.TID 0000.0001) %MON dynstat_uvel_max             =   1.4989216918365E-01
(PID.TID 0000.0001) %MON dynstat_uvel_min             =  -1.8845268236146E-01
(PID.TID 0000.0001) %MON dynstat_uvel_mean            =  -1.6394381450747E-03
(PID.TID 0000.0001) %MON dynstat_uvel_sd              =   5.7463482497764E-03
(PID.TID 0000.0001) %MON dynstat_uvel_del2            =   6.0498710600599E-05
(PID.TID 0000.0001) %MON dynstat_vvel_max             =   1.7520571103521E-01
(PID.TID 0000.0001) %MON dynstat_vvel_min             =  -2.5251838825425E-01
(PID.TID 0000.0001) %MON dynstat_vvel_mean            =   1.4260997297536E-03
(PID.TID 0000.0001) %MON dynstat_vvel_sd              =   8.8111905565536E-03
(PID.TID 0000.0001) %MON dynstat_vvel_del2            =   7.4286430628651E-05
(PID.TID 0000.0001) %MON dynstat_wvel_max             =   8.7372379869532E-04
(PID.TID 0000.0001) %MON dynstat_wvel_min             =  -5.8401846982659E-04
(PID.TID 0000.0001) %MON dynstat_wvel_mean            =  -6.5561123217267E-08
(PID.TID 0000.0001) %MON dynstat_wvel_sd              =   3.3540713666883E-05
(PID.TID 0000.0001) %MON dynstat_wvel_del2            =   3.6628857399226E-07
(PID.TID 0000.0001) %MON dynstat_theta_max            =   2.9325259989508E+01
(PID.TID 0000.0001) %MON dynstat_theta_min            =  -1.8421052449033E+00
(PID.TID 0000.0001) %MON dynstat_theta_mean           =   3.4433844632321E+00
(PID.TID 0000.0001) %MON dynstat_theta_sd             =   4.2496351091305E+00
(PID.TID 0000.0001) %MON dynstat_theta_del2           =   5.0314824671236E-03
(PID.TID 0000.0001) %MON dynstat_salt_max             =   3.7437368321117E+01
(PID.TID 0000.0001) %MON dynstat_salt_min             =   3.1034336596398E+01
(PID.TID 0000.0001) %MON dynstat_salt_mean            =   3.4718541662554E+01
(PID.TID 0000.0001) %MON dynstat_salt_sd              =   2.8196416755613E-01
(PID.TID 0000.0001) %MON dynstat_salt_del2            =   8.1440010573209E-04
(PID.TID 0000.0001) %MON forcing_qnet_max             =   0.0000000000000E+00
(PID.TID 0000.0001) %MON forcing_qnet_min             =   0.0000000000000E+00
(PID.TID 0000.0001) %MON forcing_qnet_mean            =   0.0000000000000E+00
(PID.TID 0000.0001) %MON forcing_qnet_sd              =   0.0000000000000E+00
(PID.TID 0000.0001) %MON forcing_qnet_del2            =   0.0000000000000E+00
(PID.TID 0000.0001) %MON forcing_qsw_max              =   0.0000000000000E+00
(PID.TID 0000.0001) %MON forcing_qsw_min              =   0.0000000000000E+00
(PID.TID 0000.0001) %MON forcing_qsw_mean             =   0.0000000000000E+00
(PID.TID 0000.0001) %MON forcing_qsw_sd               =   0.0000000000000E+00
(PID.TID 0000.0001) %MON forcing_qsw_del2             =   0.0000000000000E+00
(PID.TID 0000.0001) %MON forcing_empmr_max            =   0.0000000000000E+00
(PID.TID 0000.0001) %MON forcing_empmr_min            =   0.0000000000000E+00
(PID.TID 0000.0001) %MON forcing_empmr_mean           =   0.0000000000000E+00
(PID.TID 0000.0001) %MON forcing_empmr_sd             =   0.0000000000000E+00
(PID.TID 0000.0001) %MON forcing_empmr_del2           =   0.0000000000000E+00
(PID.TID 0000.0001) %MON forcing_fu_max               =   1.6004334390163E-01
(PID.TID 0000.0001) %MON forcing_fu_min               =  -1.0329221189022E-01
(PID.TID 0000.0001) %MON forcing_fu_mean              =   4.1280488583042E-03
(PID.TID 0000.0001) %MON forcing_fu_sd                =   5.5800359441598E-02
(PID.TID 0000.0001) %MON forcing_fu_del2              =   3.2370368543277E-04
(PID.TID 0000.0001) %MON forcing_fv_max               =   8.4633164107800E-02
(PID.TID 0000.0001) %MON forcing_fv_min               =  -7.0490099489689E-02
(PID.TID 0000.0001) %MON forcing_fv_mean              =   2.8803575798275E-03
(PID.TID 0000.0001) %MON forcing_fv_sd                =   2.2193297771215E-02
(PID.TID 0000.0001) %MON forcing_fv_del2              =   2.1170835219132E-04
(PID.TID 0000.0001) %MON trAdv_CFL_u_max              =   5.9031526786686E-02
(PID.TID 0000.0001) %MON trAdv_CFL_v_max              =   4.9477990243245E-02
(PID.TID 0000.0001) %MON trAdv_CFL_w_max              =   2.8201853760724E-01
(PID.TID 0000.0001) %MON advcfl_uvel_max              =   5.9011322854660E-02
(PID.TID 0000.0001) %MON advcfl_vvel_max              =   4.9060272929758E-02
(PID.TID 0000.0001) %MON advcfl_wvel_max              =   3.0532914219646E-01
(PID.TID 0000.0001) %MON advcfl_W_hf_max              =   3.4147468179625E-01
(PID.TID 0000.0001) %MON pe_b_mean                    =   5.1531717545019E-04
(PID.TID 0000.0001) %MON ke_max                       =   1.7990842554164E-02
(PID.TID 0000.0001) %MON ke_mean                      =   5.2315031966004E-05
(PID.TID 0000.0001) %MON ke_vol                       =   1.4474490094807E+18
(PID.TID 0000.0001) %MON vort_r_min                   =  -5.8721866158861E-07
(PID.TID 0000.0001) %MON vort_r_max                   =   5.6499235160368E-07
(PID.TID 0000.0001) %MON vort_a_mean                  =  -1.8620194793382E-05
(PID.TID 0000.0001) %MON vort_a_sd                    =   7.3819041973254E-05
(PID.TID 0000.0001) %MON vort_p_mean                  =  -2.1817354111469E-05
(PID.TID 0000.0001) %MON vort_p_sd                    =   1.0010699014190E-04
(PID.TID 0000.0001) %MON surfExpan_theta_mean         =   4.1375493246964E-06
(PID.TID 0000.0001) %MON surfExpan_salt_mean          =   1.8394045558391E-07
(PID.TID 0000.0001) // =======================================================
(PID.TID 0000.0001) // End MONITOR dynamic field statistics
(PID.TID 0000.0001) // =======================================================
(PID.TID 0000.0001) // =======================================================
(PID.TID 0000.0001) // Begin MONITOR ptracer field statistics
(PID.TID 0000.0001) // =======================================================
(PID.TID 0000.0001) %MON trcstat_ptracer01_max        =   1.0305287933450E+00
(PID.TID 0000.0001) %MON trcstat_ptracer01_min        =  -5.3710820132246E-02
(PID.TID 0000.0001) %MON trcstat_ptracer01_mean       =   1.1521617665237E-02
(PID.TID 0000.0001) %MON trcstat_ptracer01_sd         =   1.0616666657010E-01
(PID.TID 0000.0001) %MON trcstat_ptracer01_del2       =   4.6758915661347E-05
(PID.TID 0000.0001) // =======================================================
(PID.TID 0000.0001) // End MONITOR ptracers field statistics
(PID.TID 0000.0001) // =======================================================
 cg2d: Sum(rhs),rhsMax =  -6.17284001691587E-14  8.25300027515378E+00
(PID.TID 0000.0001)      cg2d_init_res =   3.14258949732276E+00
(PID.TID 0000.0001)      cg2d_iters(min,last) =      -1     186
(PID.TID 0000.0001)      cg2d_last_res =   1.09176882881343E-17
(PID.TID 0000.0001) // =======================================================
(PID.TID 0000.0001) // Begin MONITOR dynamic field statistics
(PID.TID 0000.0001) // =======================================================
(PID.TID 0000.0001) %MON time_tsnumber                =                     3
(PID.TID 0000.0001) %MON time_secondsf                =   2.5920000000000E+05
(PID.TID 0000.0001) %MON dynstat_eta_max              =   2.3625887279008E+00
(PID.TID 0000.0001) %MON dynstat_eta_min              =  -2.3603873418794E+00
(PID.TID 0000.0001) %MON dynstat_eta_mean             =   8.9941784571697E-17
(PID.TID 0000.0001) %MON dynstat_eta_sd               =   7.6388766692060E-01
(PID.TID 0000.0001) %MON dynstat_eta_del2             =   3.2887229827644E-03
(PID.TID 0000.0001) %MON dynstat_uvel_max             =   2.1451465891081E-01
(PID.TID 0000.0001) %MON dynstat_uvel_min             =  -2.7024081920205E-01
(PID.TID 0000.0001) %MON dynstat_uvel_mean            =  -1.6662105783887E-03
(PID.TID 0000.0001) %MON dynstat_uvel_sd              =   8.3182492803226E-03
(PID.TID 0000.0001) %MON dynstat_uvel_del2            =   8.3585348747564E-05
(PID.TID 0000.0001) %MON dynstat_vvel_max             =   2.5538905738268E-01
(PID.TID 0000.0001) %MON dynstat_vvel_min             =  -3.6778069309892E-01
(PID.TID 0000.0001) %MON dynstat_vvel_mean            =   1.1203937279112E-03
(PID.TID 0000.0001) %MON dynstat_vvel_sd              =   1.2252667888485E-02
(PID.TID 0000.0001) %MON dynstat_vvel_del2            =   1.0084172854146E-04
(PID.TID 0000.0001) %MON dynstat_wvel_max             =   1.2843999985930E-03
(PID.TID 0000.0001) %MON dynstat_wvel_min             =  -8.4769268202197E-04
(PID.TID 0000.0001) %MON dynstat_wvel_mean            =  -3.1352198287667E-08
(PID.TID 0000.0001) %MON dynstat_wvel_sd              =   4.7028160155667E-05
(PID.TID 0000.0001) %MON dynstat_wvel_del2            =   5.0232303062867E-07
(PID.TID 0000.0001) %MON dynstat_theta_max            =   2.9322866623290E+01
(PID.TID 0000.0001) %MON dynstat_theta_min            =  -1.8317841719584E+00
(PID.TID 0000.0001) %MON dynstat_theta_mean           =   3.4434310545951E+00
(PID.TID 0000.0001) %MON dynstat_theta_sd             =   4.2484458052785E+00
(PID.TID 0000.0001) %MON dynstat_theta_del2           =   4.9241824421606E-03
(PID.TID 0000.0001) %MON dynstat_salt_max             =   3.7436292744343E+01
(PID.TID 0000.0001) %MON dynstat_salt_min             =   3.1038244499507E+01
(PID.TID 0000.0001) %MON dynstat_salt_mean            =   3.4718543360465E+01
(PID.TID 0000.0001) %MON dynstat_salt_sd              =   2.8176192277484E-01
(PID.TID 0000.0001) %MON dynstat_salt_del2            =   8.0571455078316E-04
(PID.TID 0000.0001) %MON forcing_qnet_max             =   0.0000000000000E+00
(PID.TID 0000.0001) %MON forcing_qnet_min             =   0.0000000000000E+00
(PID.TID 0000.0001) %MON forcing_qnet_mean            =   0.0000000000000E+00
(PID.TID 0000.0001) %MON forcing_qnet_sd              =   0.0000000000000E+00
(PID.TID 0000.0001) %MON forcing_qnet_del2            =   0.0000000000000E+00
(PID.TID 0000.0001) %MON forcing_qsw_max              =   0.0000000000000E+00
(PID.TID 0000.0001) %MON forcing_qsw_min              =   0.0000000000000E+00
(PID.TID 0000.0001) %MON forcing_qsw_mean             =   0.0000000000000E+00
(PID.TID 0000.0001) %MON forcing_qsw_sd               =   0.0000000000000E+00
(PID.TID 0000.0001) %MON forcing_qsw_del2             =   0.0000000000000E+00
(PID.TID 0000.0001) %MON forcing_empmr_max            =   0.0000000000000E+00
(PID.TID 0000.0001) %MON forcing_empmr_min            =   0.0000000000000E+00
(PID.TID 0000.0001) %MON forcing_empmr_mean           =   0.0000000000000E+00
(PID.TID 0000.0001) %MON forcing_empmr_sd             =   0.0000000000000E+00
(PID.TID 0000.0001) %MON forcing_empmr_del2           =   0.0000000000000E+00
(PID.TID 0000.0001) %MON forcing_fu_max               =   1.6004334390163E-01
(PID.TID 0000.0001) %MON forcing_fu_min               =  -1.0329221189022E-01
(PID.TID 0000.0001) %MON forcing_fu_mean              =   4.1280488583042E-03
(PID.TID 0000.0001) %MON forcing_fu_sd                =   5.5800359441598E-02
(PID.TID 0000.0001) %MON forcing_fu_del2              =   3.2370368543277E-04
(PID.TID 0000.0001) %MON forcing_fv_max               =   8.4633164107800E-02
(PID.TID 0000.0001) %MON forcing_fv_min               =  -7.0490099489689E-02
(PID.TID 0000.0001) %MON forcing_fv_mean              =   2.8803575798275E-03
(PID.TID 0000.0001) %MON forcing_fv_sd                =   2.2193297771215E-02
(PID.TID 0000.0001) %MON forcing_fv_del2              =   2.1170835219132E-04
(PID.TID 0000.0001) %MON trAdv_CFL_u_max              =   7.4932358413043E-02
(PID.TID 0000.0001) %MON trAdv_CFL_v_max              =   7.2061985641906E-02
(PID.TID 0000.0001) %MON trAdv_CFL_w_max              =   4.1040050428749E-01
(PID.TID 0000.0001) %MON advcfl_uvel_max              =   7.4906212033642E-02
(PID.TID 0000.0001) %MON advcfl_vvel_max              =   7.1453890175955E-02
(PID.TID 0000.0001) %MON advcfl_wvel_max              =   4.4515304947062E-01
(PID.TID 0000.0001) %MON advcfl_W_hf_max              =   4.9854554852115E-01
(PID.TID 0000.0001) %MON pe_b_mean                    =   6.5956027341562E-04
(PID.TID 0000.0001) %MON ke_max                       =   3.7625687559011E-02
(PID.TID 0000.0001) %MON ke_mean                      =   1.0129261336741E-04
(PID.TID 0000.0001) %MON ke_vol                       =   1.4474490094807E+18
(PID.TID 0000.0001) %MON vort_r_min                   =  -8.5212870436026E-07
(PID.TID 0000.0001) %MON vort_r_max                   =   8.2384667614355E-07
(PID.TID 0000.0001) %MON vort_a_mean                  =  -1.8620194793382E-05
(PID.TID 0000.0001) %MON vort_a_sd                    =   7.3819044645053E-05
(PID.TID 0000.0001) %MON vort_p_mean                  =  -2.1817357387127E-05
(PID.TID 0000.0001) %MON vort_p_sd                    =   1.0011062100607E-04
(PID.TID 0000.0001) %MON surfExpan_theta_mean         =   1.7662403395006E-06
(PID.TID 0000.0001) %MON surfExpan_salt_mean          =   7.4363887012604E-08
(PID.TID 0000.0001) // =======================================================
(PID.TID 0000.0001) // End MONITOR dynamic field statistics
(PID.TID 0000.0001) // =======================================================
(PID.TID 0000.0001) // =======================================================
(PID.TID 0000.0001) // Begin MONITOR ptracer field statistics
(PID.TID 0000.0001) // =======================================================
(PID.TID 0000.0001) %MON trcstat_ptracer01_max        =   1.0557007501733E+00
(PID.TID 0000.0001) %MON trcstat_ptracer01_min        =  -1.0306373772022E-01
(PID.TID 0000.0001) %MON trcstat_ptracer01_mean       =   1.1520813601657E-02
(PID.TID 0000.0001) %MON trcstat_ptracer01_sd         =   1.0591473429053E-01
(PID.TID 0000.0001) %MON trcstat_ptracer01_del2       =   6.5769916674954E-05
(PID.TID 0000.0001) // =======================================================
(PID.TID 0000.0001) // End MONITOR ptracers field statistics
(PID.TID 0000.0001) // =======================================================
 cg2d: Sum(rhs),rhsMax =   5.95079541199084E-14  7.49420565257970E+00
(PID.TID 0000.0001)      cg2d_init_res =   3.92657355843747E+00
(PID.TID 0000.0001)      cg2d_iters(min,last) =      -1     188
(PID.TID 0000.0001)      cg2d_last_res =   1.18180020776113E-17
(PID.TID 0000.0001) // =======================================================
(PID.TID 0000.0001) // Begin MONITOR dynamic field statistics
(PID.TID 0000.0001) // =======================================================
(PID.TID 0000.0001) %MON time_tsnumber                =                     4
(PID.TID 0000.0001) %MON time_secondsf                =   3.4560000000000E+05
(PID.TID 0000.0001) %MON dynstat_eta_max              =   2.4229349556584E+00
(PID.TID 0000.0001) %MON dynstat_eta_min              =  -2.3347895530945E+00
(PID.TID 0000.0001) %MON dynstat_eta_mean             =   9.7436933286005E-17
(PID.TID 0000.0001) %MON dynstat_eta_sd               =   7.7721042534866E-01
(PID.TID 0000.0001) %MON dynstat_eta_del2             =   3.0668862075329E-03
(PID.TID 0000.0001) %MON dynstat_uvel_max             =   2.6889857854865E-01
(PID.TID 0000.0001) %MON dynstat_uvel_min             =  -3.4269960777620E-01
(PID.TID 0000.0001) %MON dynstat_uvel_mean            =  -1.4163158009011E-03
(PID.TID 0000.0001) %MON dynstat_uvel_sd              =   1.1001987774593E-02
(PID.TID 0000.0001) %MON dynstat_uvel_del2            =   1.0207405207917E-04
(PID.TID 0000.0001) %MON dynstat_vvel_max             =   3.2953559099100E-01
(PID.TID 0000.0001) %MON dynstat_vvel_min             =  -4.7243904902653E-01
(PID.TID 0000.0001) %MON dynstat_vvel_mean            =   6.4307400953780E-04
(PID.TID 0000.0001) %MON dynstat_vvel_sd              =   1.5067314274053E-02
(PID.TID 0000.0001) %MON dynstat_vvel_del2            =   1.1881939408173E-04
(PID.TID 0000.0001) %MON dynstat_wvel_max             =   1.6635612522558E-03
(PID.TID 0000.0001) %MON dynstat_wvel_min             =  -1.0782879669211E-03
(PID.TID 0000.0001) %MON dynstat_wvel_mean            =  -9.1256177154877E-09
(PID.TID 0000.0001) %MON dynstat_wvel_sd              =   5.7960313102880E-05
(PID.TID 0000.0001) %MON dynstat_wvel_del2            =   6.0142222349170E-07
(PID.TID 0000.0001) %MON dynstat_theta_max            =   2.9320489719050E+01
(PID.TID 0000.0001) %MON dynstat_theta_min            =  -1.7943154665373E+00
(PID.TID 0000.0001) %MON dynstat_theta_mean           =   3.4434571976454E+00
(PID.TID 0000.0001) %MON dynstat_theta_sd             =   4.2471030555818E+00
(PID.TID 0000.0001) %MON dynstat_theta_del2           =   4.8185143336353E-03
(PID.TID 0000.0001) %MON dynstat_salt_max             =   3.7435193025939E+01
(PID.TID 0000.0001) %MON dynstat_salt_min             =   3.1042549298243E+01
(PID.TID 0000.0001) %MON dynstat_salt_mean            =   3.4718544238142E+01
(PID.TID 0000.0001) %MON dynstat_salt_sd              =   2.8154219906602E-01
(PID.TID 0000.0001) %MON dynstat_salt_del2            =   7.9584453437966E-04
(PID.TID 0000.0001) %MON forcing_qnet_max             =   0.0000000000000E+00
(PID.TID 0000.0001) %MON forcing_qnet_min             =   0.0000000000000E+00
(PID.TID 0000.0001) %MON forcing_qnet_mean            =   0.0000000000000E+00
(PID.TID 0000.0001) %MON forcing_qnet_sd              =   0.0000000000000E+00
(PID.TID 0000.0001) %MON forcing_qnet_del2            =   0.0000000000000E+00
(PID.TID 0000.0001) %MON forcing_qsw_max              =   0.0000000000000E+00
(PID.TID 0000.0001) %MON forcing_qsw_min              =   0.0000000000000E+00
(PID.TID 0000.0001) %MON forcing_qsw_mean             =   0.0000000000000E+00
(PID.TID 0000.0001) %MON forcing_qsw_sd               =   0.0000000000000E+00
(PID.TID 0000.0001) %MON forcing_qsw_del2             =   0.0000000000000E+00
(PID.TID 0000.0001) %MON forcing_empmr_max            =   0.0000000000000E+00
(PID.TID 0000.0001) %MON forcing_empmr_min            =   0.0000000000000E+00
(PID.TID 0000.0001) %MON forcing_empmr_mean           =   0.0000000000000E+00
(PID.TID 0000.0001) %MON forcing_empmr_sd             =   0.0000000000000E+00
(PID.TID 0000.0001) %MON forcing_empmr_del2           =   0.0000000000000E+00
(PID.TID 0000.0001) %MON forcing_fu_max               =   1.6004334390163E-01
(PID.TID 0000.0001) %MON forcing_fu_min               =  -1.0329221189022E-01
(PID.TID 0000.0001) %MON forcing_fu_mean              =   4.1280488583042E-03
(PID.TID 0000.0001) %MON forcing_fu_sd                =   5.5800359441598E-02
(PID.TID 0000.0001) %MON forcing_fu_del2              =   3.2370368543277E-04
(PID.TID 0000.0001) %MON forcing_fv_max               =   8.4633164107800E-02
(PID.TID 0000.0001) %MON forcing_fv_min               =  -7.0490099489689E-02
(PID.TID 0000.0001) %MON forcing_fv_mean              =   2.8803575798275E-03
(PID.TID 0000.0001) %MON forcing_fv_sd                =   2.2193297771215E-02
(PID.TID 0000.0001) %MON forcing_fv_del2              =   2.1170835219132E-04
(PID.TID 0000.0001) %MON trAdv_CFL_u_max              =   8.1779125381555E-02
(PID.TID 0000.0001) %MON trAdv_CFL_v_max              =   9.2566644789443E-02
(PID.TID 0000.0001) %MON trAdv_CFL_w_max              =   5.2515200394053E-01
(PID.TID 0000.0001) %MON advcfl_uvel_max              =   8.1750820163402E-02
(PID.TID 0000.0001) %MON advcfl_vvel_max              =   9.1787330214461E-02
(PID.TID 0000.0001) %MON advcfl_wvel_max              =   5.7035480815293E-01
(PID.TID 0000.0001) %MON advcfl_W_hf_max              =   6.4005126235451E-01
(PID.TID 0000.0001) %MON pe_b_mean                    =   6.8276732292361E-04
(PID.TID 0000.0001) %MON ke_max                       =   6.1712151084706E-02
(PID.TID 0000.0001) %MON ke_mean                      =   1.5902159961444E-04
(PID.TID 0000.0001) %MON ke_vol                       =   1.4474490094807E+18
(PID.TID 0000.0001) %MON vort_r_min                   =  -1.0915430443570E-06
(PID.TID 0000.0001) %MON vort_r_max                   =   1.0663098076128E-06
(PID.TID 0000.0001) %MON vort_a_mean                  =  -1.8620194793382E-05
(PID.TID 0000.0001) %MON vort_a_sd                    =   7.3819102345666E-05
(PID.TID 0000.0001) %MON vort_p_mean                  =  -2.1817369222370E-05
(PID.TID 0000.0001) %MON vort_p_sd                    =   1.0011199366442E-04
(PID.TID 0000.0001) %MON surfExpan_theta_mean         =   3.6684888508638E-07
(PID.TID 0000.0001) %MON surfExpan_salt_mean          =  -1.3288644811309E-08
(PID.TID 0000.0001) // =======================================================
(PID.TID 0000.0001) // End MONITOR dynamic field statistics
(PID.TID 0000.0001) // =======================================================
(PID.TID 0000.0001) // =======================================================
(PID.TID 0000.0001) // Begin MONITOR ptracer field statistics
(PID.TID 0000.0001) // =======================================================
(PID.TID 0000.0001) %MON trcstat_ptracer01_max        =   1.0802540995804E+00
(PID.TID 0000.0001) %MON trcstat_ptracer01_min        =  -1.5786492298332E-01
(PID.TID 0000.0001) %MON trcstat_ptracer01_mean       =   1.1519624747862E-02
(PID.TID 0000.0001) %MON trcstat_ptracer01_sd         =   1.0567314546291E-01
(PID.TID 0000.0001) %MON trcstat_ptracer01_del2       =   8.2090160745670E-05
(PID.TID 0000.0001) // =======================================================
(PID.TID 0000.0001) // End MONITOR ptracers field statistics
(PID.TID 0000.0001) // =======================================================
(PID.TID 0000.0001) %CHECKPOINT         4 ckptA
  early fc =  0.000000000000000D+00
 --> objf_tracer(bi,bj) =  0.513226233221452D+14
 --> objf_tracer(bi,bj) =  0.579128875719650D+14
 --> objf_tracer(bi,bj) =  0.266990510053085D+14
 --> objf_tracer(bi,bj) =  0.481616167351798D+14
  local fc =  0.184096178634598D+15
 global fc =  0.184096178634598D+15
(PID.TID 0000.0001) Did not write pickup because writePickupAtEnd = FALSE
 cg2d: Sum(rhs),rhsMax =   5.95079541199084E-14  7.49420565257970E+00
(PID.TID 0000.0001) Did not write pickup because writePickupAtEnd = FALSE
(PID.TID 0000.0001) // =======================================================
(PID.TID 0000.0001) // Begin MONITOR dynamic field statistics
(PID.TID 0000.0001) // =======================================================
(PID.TID 0000.0001) %MON ad_time_tsnumber             =                     4
(PID.TID 0000.0001) %MON ad_time_secondsf             =   3.4560000000000E+05
(PID.TID 0000.0001) %MON ad_dynstat_adeta_max         =   0.0000000000000E+00
(PID.TID 0000.0001) %MON ad_dynstat_adeta_min         =   0.0000000000000E+00
(PID.TID 0000.0001) %MON ad_dynstat_adeta_mean        =   0.0000000000000E+00
(PID.TID 0000.0001) %MON ad_dynstat_adeta_sd          =   0.0000000000000E+00
(PID.TID 0000.0001) %MON ad_dynstat_adeta_del2        =   0.0000000000000E+00
(PID.TID 0000.0001) %MON ad_dynstat_aduvel_max        =   0.0000000000000E+00
(PID.TID 0000.0001) %MON ad_dynstat_aduvel_min        =   0.0000000000000E+00
(PID.TID 0000.0001) %MON ad_dynstat_aduvel_mean       =   0.0000000000000E+00
(PID.TID 0000.0001) %MON ad_dynstat_aduvel_sd         =   0.0000000000000E+00
(PID.TID 0000.0001) %MON ad_dynstat_aduvel_del2       =   0.0000000000000E+00
(PID.TID 0000.0001) %MON ad_dynstat_advvel_max        =   0.0000000000000E+00
(PID.TID 0000.0001) %MON ad_dynstat_advvel_min        =   0.0000000000000E+00
(PID.TID 0000.0001) %MON ad_dynstat_advvel_mean       =   0.0000000000000E+00
(PID.TID 0000.0001) %MON ad_dynstat_advvel_sd         =   0.0000000000000E+00
(PID.TID 0000.0001) %MON ad_dynstat_advvel_del2       =   0.0000000000000E+00
(PID.TID 0000.0001) %MON ad_dynstat_adwvel_max        =   0.0000000000000E+00
(PID.TID 0000.0001) %MON ad_dynstat_adwvel_min        =   0.0000000000000E+00
(PID.TID 0000.0001) %MON ad_dynstat_adwvel_mean       =   0.0000000000000E+00
(PID.TID 0000.0001) %MON ad_dynstat_adwvel_sd         =   0.0000000000000E+00
(PID.TID 0000.0001) %MON ad_dynstat_adwvel_del2       =   0.0000000000000E+00
(PID.TID 0000.0001) %MON ad_dynstat_adtheta_max       =   0.0000000000000E+00
(PID.TID 0000.0001) %MON ad_dynstat_adtheta_min       =   0.0000000000000E+00
(PID.TID 0000.0001) %MON ad_dynstat_adtheta_mean      =   0.0000000000000E+00
(PID.TID 0000.0001) %MON ad_dynstat_adtheta_sd        =   0.0000000000000E+00
(PID.TID 0000.0001) %MON ad_dynstat_adtheta_del2      =   0.0000000000000E+00
(PID.TID 0000.0001) %MON ad_dynstat_adsalt_max        =   0.0000000000000E+00
(PID.TID 0000.0001) %MON ad_dynstat_adsalt_min        =   0.0000000000000E+00
(PID.TID 0000.0001) %MON ad_dynstat_adsalt_mean       =   0.0000000000000E+00
(PID.TID 0000.0001) %MON ad_dynstat_adsalt_sd         =   0.0000000000000E+00
(PID.TID 0000.0001) %MON ad_dynstat_adsalt_del2       =   0.0000000000000E+00
(PID.TID 0000.0001) %MON ad_forcing_adqnet_max        =   0.0000000000000E+00
(PID.TID 0000.0001) %MON ad_forcing_adqnet_min        =   0.0000000000000E+00
(PID.TID 0000.0001) %MON ad_forcing_adqnet_mean       =   0.0000000000000E+00
(PID.TID 0000.0001) %MON ad_forcing_adqnet_sd         =   0.0000000000000E+00
(PID.TID 0000.0001) %MON ad_forcing_adqnet_del2       =   0.0000000000000E+00
(PID.TID 0000.0001) %MON ad_forcing_adqsw_max         =   0.0000000000000E+00
(PID.TID 0000.0001) %MON ad_forcing_adqsw_min         =   0.0000000000000E+00
(PID.TID 0000.0001) %MON ad_forcing_adqsw_mean        =   0.0000000000000E+00
(PID.TID 0000.0001) %MON ad_forcing_adqsw_sd          =   0.0000000000000E+00
(PID.TID 0000.0001) %MON ad_forcing_adqsw_del2        =   0.0000000000000E+00
(PID.TID 0000.0001) %MON ad_forcing_adempmr_max       =   0.0000000000000E+00
(PID.TID 0000.0001) %MON ad_forcing_adempmr_min       =   0.0000000000000E+00
(PID.TID 0000.0001) %MON ad_forcing_adempmr_mean      =   0.0000000000000E+00
(PID.TID 0000.0001) %MON ad_forcing_adempmr_sd        =   0.0000000000000E+00
(PID.TID 0000.0001) %MON ad_forcing_adempmr_del2      =   0.0000000000000E+00
(PID.TID 0000.0001) %MON ad_forcing_adfu_max          =   0.0000000000000E+00
(PID.TID 0000.0001) %MON ad_forcing_adfu_min          =   0.0000000000000E+00
(PID.TID 0000.0001) %MON ad_forcing_adfu_mean         =   0.0000000000000E+00
(PID.TID 0000.0001) %MON ad_forcing_adfu_sd           =   0.0000000000000E+00
(PID.TID 0000.0001) %MON ad_forcing_adfu_del2         =   0.0000000000000E+00
(PID.TID 0000.0001) %MON ad_forcing_adfv_max          =   0.0000000000000E+00
(PID.TID 0000.0001) %MON ad_forcing_adfv_min          =   0.0000000000000E+00
(PID.TID 0000.0001) %MON ad_forcing_adfv_mean         =   0.0000000000000E+00
(PID.TID 0000.0001) %MON ad_forcing_adfv_sd           =   0.0000000000000E+00
(PID.TID 0000.0001) %MON ad_forcing_adfv_del2         =   0.0000000000000E+00
(PID.TID 0000.0001) // =======================================================
(PID.TID 0000.0001) // End MONITOR dynamic field statistics
(PID.TID 0000.0001) // =======================================================
(PID.TID 0000.0001) // =======================================================
(PID.TID 0000.0001) // Begin MONITOR adptracer field statistics
(PID.TID 0000.0001) // =======================================================
(PID.TID 0000.0001) %MON ad_trcstat_adptracer01_max   =   2.7711039188397E+10
(PID.TID 0000.0001) %MON ad_trcstat_adptracer01_min   =   0.0000000000000E+00
(PID.TID 0000.0001) %MON ad_trcstat_adptracer01_mean  =   2.6305871962696E+08
(PID.TID 0000.0001) %MON ad_trcstat_adptracer01_sd    =   2.4886113209974E+09
(PID.TID 0000.0001) %MON ad_trcstat_adptracer01_del2  =   9.8660422620199E+06
(PID.TID 0000.0001) // =======================================================
(PID.TID 0000.0001) // End MONITOR ptracers field statistics
(PID.TID 0000.0001) // =======================================================
 cg2d: Sum(rhs),rhsMax =   5.95079541199084E-14  7.49420565257970E+00
 cg2d: Sum(rhs),rhsMax =  -6.17284001691587E-14  8.25300027515378E+00
(PID.TID 0000.0001) // =======================================================
(PID.TID 0000.0001) // Begin MONITOR dynamic field statistics
(PID.TID 0000.0001) // =======================================================
(PID.TID 0000.0001) %MON ad_time_tsnumber             =                     3
(PID.TID 0000.0001) %MON ad_time_secondsf             =   2.5920000000000E+05
(PID.TID 0000.0001) %MON ad_dynstat_adeta_max         =   1.7453413236460E+07
(PID.TID 0000.0001) %MON ad_dynstat_adeta_min         =  -2.0556956471110E+07
(PID.TID 0000.0001) %MON ad_dynstat_adeta_mean        =   1.3050721130334E+04
(PID.TID 0000.0001) %MON ad_dynstat_adeta_sd          =   1.6058219543239E+06
(PID.TID 0000.0001) %MON ad_dynstat_adeta_del2        =   6.2345487621168E+04
(PID.TID 0000.0001) %MON ad_dynstat_aduvel_max        =   2.9736550748277E+09
(PID.TID 0000.0001) %MON ad_dynstat_aduvel_min        =  -1.1133388614275E+09
(PID.TID 0000.0001) %MON ad_dynstat_aduvel_mean       =   3.4550095525940E+06
(PID.TID 0000.0001) %MON ad_dynstat_aduvel_sd         =   2.1574084001153E+07
(PID.TID 0000.0001) %MON ad_dynstat_aduvel_del2       =   2.9086940142644E+05
(PID.TID 0000.0001) %MON ad_dynstat_advvel_max        =   9.6301602608649E+08
(PID.TID 0000.0001) %MON ad_dynstat_advvel_min        =  -1.3628081334534E+09
(PID.TID 0000.0001) %MON ad_dynstat_advvel_mean       =  -9.5950450946958E+05
(PID.TID 0000.0001) %MON ad_dynstat_advvel_sd         =   1.5048660981350E+07
(PID.TID 0000.0001) %MON ad_dynstat_advvel_del2       =   2.1470835179748E+05
(PID.TID 0000.0001) %MON ad_dynstat_adwvel_max        =   2.1271912397472E+10
(PID.TID 0000.0001) %MON ad_dynstat_adwvel_min        =  -2.1368717388693E+10
(PID.TID 0000.0001) %MON ad_dynstat_adwvel_mean       =  -6.3611679766421E+05
(PID.TID 0000.0001) %MON ad_dynstat_adwvel_sd         =   1.1760464735182E+08
(PID.TID 0000.0001) %MON ad_dynstat_adwvel_del2       =   1.7693844265443E+06
(PID.TID 0000.0001) %MON ad_dynstat_adtheta_max       =   1.5055483313532E+10
(PID.TID 0000.0001) %MON ad_dynstat_adtheta_min       =  -1.4673123921006E+10
(PID.TID 0000.0001) %MON ad_dynstat_adtheta_mean      =  -1.6322233556788E+04
(PID.TID 0000.0001) %MON ad_dynstat_adtheta_sd        =   8.8258125494769E+07
(PID.TID 0000.0001) %MON ad_dynstat_adtheta_del2      =   2.2082669816876E+06
(PID.TID 0000.0001) %MON ad_dynstat_adsalt_max        =   5.4290558507721E+10
(PID.TID 0000.0001) %MON ad_dynstat_adsalt_min        =  -5.6558276440464E+10
(PID.TID 0000.0001) %MON ad_dynstat_adsalt_mean       =  -1.3937266459689E+07
(PID.TID 0000.0001) %MON ad_dynstat_adsalt_sd         =   3.6418760756598E+08
(PID.TID 0000.0001) %MON ad_dynstat_adsalt_del2       =   8.1814984251423E+06
(PID.TID 0000.0001) %MON ad_forcing_adqnet_max        =   0.0000000000000E+00
(PID.TID 0000.0001) %MON ad_forcing_adqnet_min        =   0.0000000000000E+00
(PID.TID 0000.0001) %MON ad_forcing_adqnet_mean       =   0.0000000000000E+00
(PID.TID 0000.0001) %MON ad_forcing_adqnet_sd         =   0.0000000000000E+00
(PID.TID 0000.0001) %MON ad_forcing_adqnet_del2       =   0.0000000000000E+00
(PID.TID 0000.0001) %MON ad_forcing_adqsw_max         =   0.0000000000000E+00
(PID.TID 0000.0001) %MON ad_forcing_adqsw_min         =   0.0000000000000E+00
(PID.TID 0000.0001) %MON ad_forcing_adqsw_mean        =   0.0000000000000E+00
(PID.TID 0000.0001) %MON ad_forcing_adqsw_sd          =   0.0000000000000E+00
(PID.TID 0000.0001) %MON ad_forcing_adqsw_del2        =   0.0000000000000E+00
(PID.TID 0000.0001) %MON ad_forcing_adempmr_max       =   0.0000000000000E+00
(PID.TID 0000.0001) %MON ad_forcing_adempmr_min       =   0.0000000000000E+00
(PID.TID 0000.0001) %MON ad_forcing_adempmr_mean      =   0.0000000000000E+00
(PID.TID 0000.0001) %MON ad_forcing_adempmr_sd        =   0.0000000000000E+00
(PID.TID 0000.0001) %MON ad_forcing_adempmr_del2      =   0.0000000000000E+00
(PID.TID 0000.0001) %MON ad_forcing_adfu_max          =   2.3047843135966E+08
(PID.TID 0000.0001) %MON ad_forcing_adfu_min          =  -9.0415661789336E+07
(PID.TID 0000.0001) %MON ad_forcing_adfu_mean         =   2.8655674310249E+05
(PID.TID 0000.0001) %MON ad_forcing_adfu_sd           =   8.6195713799022E+06
(PID.TID 0000.0001) %MON ad_forcing_adfu_del2         =   4.1639823747339E+05
(PID.TID 0000.0001) %MON ad_forcing_adfv_max          =   7.7248429522825E+07
(PID.TID 0000.0001) %MON ad_forcing_adfv_min          =  -1.0920771279620E+08
(PID.TID 0000.0001) %MON ad_forcing_adfv_mean         =   4.6592435157729E+04
(PID.TID 0000.0001) %MON ad_forcing_adfv_sd           =   5.6158619091206E+06
(PID.TID 0000.0001) %MON ad_forcing_adfv_del2         =   3.0124984397750E+05
(PID.TID 0000.0001) // =======================================================
(PID.TID 0000.0001) // End MONITOR dynamic field statistics
(PID.TID 0000.0001) // =======================================================
(PID.TID 0000.0001) // =======================================================
(PID.TID 0000.0001) // Begin MONITOR adptracer field statistics
(PID.TID 0000.0001) // =======================================================
(PID.TID 0000.0001) %MON ad_trcstat_adptracer01_max   =   5.6564822925942E+10
(PID.TID 0000.0001) %MON ad_trcstat_adptracer01_min   =  -1.2777911521326E+09
(PID.TID 0000.0001) %MON ad_trcstat_adptracer01_mean  =   5.2611929384803E+08
(PID.TID 0000.0001) %MON ad_trcstat_adptracer01_sd    =   4.9719863312319E+09
(PID.TID 0000.0001) %MON ad_trcstat_adptracer01_del2  =   1.9657622911513E+07
(PID.TID 0000.0001) // =======================================================
(PID.TID 0000.0001) // End MONITOR ptracers field statistics
(PID.TID 0000.0001) // =======================================================
 cg2d: Sum(rhs),rhsMax =  -6.17284001691587E-14  8.25300027515378E+00
 cg2d: Sum(rhs),rhsMax =   4.08562073062058E-14  8.76214364093780E+00
(PID.TID 0000.0001) // =======================================================
(PID.TID 0000.0001) // Begin MONITOR dynamic field statistics
(PID.TID 0000.0001) // =======================================================
(PID.TID 0000.0001) %MON ad_time_tsnumber             =                     2
(PID.TID 0000.0001) %MON ad_time_secondsf             =   1.7280000000000E+05
(PID.TID 0000.0001) %MON ad_dynstat_adeta_max         =   3.0481575429032E+07
(PID.TID 0000.0001) %MON ad_dynstat_adeta_min         =  -2.4946256123196E+07
(PID.TID 0000.0001) %MON ad_dynstat_adeta_mean        =   1.3365584905229E+04
(PID.TID 0000.0001) %MON ad_dynstat_adeta_sd          =   2.3463799993697E+06
(PID.TID 0000.0001) %MON ad_dynstat_adeta_del2        =   1.0565926707888E+05
(PID.TID 0000.0001) %MON ad_dynstat_aduvel_max        =   3.0628454193197E+09
(PID.TID 0000.0001) %MON ad_dynstat_aduvel_min        =  -2.9063776487559E+09
(PID.TID 0000.0001) %MON ad_dynstat_aduvel_mean       =   4.7298104912238E+06
(PID.TID 0000.0001) %MON ad_dynstat_aduvel_sd         =   3.6637620270006E+07
(PID.TID 0000.0001) %MON ad_dynstat_aduvel_del2       =   7.0266106085297E+05
(PID.TID 0000.0001) %MON ad_dynstat_advvel_max        =   3.1596661395810E+09
(PID.TID 0000.0001) %MON ad_dynstat_advvel_min        =  -3.6875183061750E+09
(PID.TID 0000.0001) %MON ad_dynstat_advvel_mean       =  -1.5776297290718E+06
(PID.TID 0000.0001) %MON ad_dynstat_advvel_sd         =   4.3159772508341E+07
(PID.TID 0000.0001) %MON ad_dynstat_advvel_del2       =   8.9361421980983E+05
(PID.TID 0000.0001) %MON ad_dynstat_adwvel_max        =   3.4530505137076E+10
(PID.TID 0000.0001) %MON ad_dynstat_adwvel_min        =  -3.4969768392250E+10
(PID.TID 0000.0001) %MON ad_dynstat_adwvel_mean       =  -6.7942486744209E+05
(PID.TID 0000.0001) %MON ad_dynstat_adwvel_sd         =   2.2207344114685E+08
(PID.TID 0000.0001) %MON ad_dynstat_adwvel_del2       =   3.4046252835536E+06
(PID.TID 0000.0001) %MON ad_dynstat_adtheta_max       =   5.0300935517887E+10
(PID.TID 0000.0001) %MON ad_dynstat_adtheta_min       =  -4.9578474685410E+10
(PID.TID 0000.0001) %MON ad_dynstat_adtheta_mean      =  -9.3876509210247E+04
(PID.TID 0000.0001) %MON ad_dynstat_adtheta_sd        =   3.0020656569622E+08
(PID.TID 0000.0001) %MON ad_dynstat_adtheta_del2      =   7.7409837299687E+06
(PID.TID 0000.0001) %MON ad_dynstat_adsalt_max        =   1.8328599429333E+11
(PID.TID 0000.0001) %MON ad_dynstat_adsalt_min        =  -1.8798143063742E+11
(PID.TID 0000.0001) %MON ad_dynstat_adsalt_mean       =  -3.5901779325984E+07
(PID.TID 0000.0001) %MON ad_dynstat_adsalt_sd         =   1.1908437920589E+09
(PID.TID 0000.0001) %MON ad_dynstat_adsalt_del2       =   2.8625332802108E+07
(PID.TID 0000.0001) %MON ad_forcing_adqnet_max        =   3.2116700015560E+04
(PID.TID 0000.0001) %MON ad_forcing_adqnet_min        =  -4.0555197107241E+06
(PID.TID 0000.0001) %MON ad_forcing_adqnet_mean       =  -4.1792909781215E+04
(PID.TID 0000.0001) %MON ad_forcing_adqnet_sd         =   2.0416502828110E+05
(PID.TID 0000.0001) %MON ad_forcing_adqnet_del2       =   9.1409802731302E+03
(PID.TID 0000.0001) %MON ad_forcing_adqsw_max         =   2.3619231248444E+05
(PID.TID 0000.0001) %MON ad_forcing_adqsw_min         =  -3.0494089798046E+02
(PID.TID 0000.0001) %MON ad_forcing_adqsw_mean        =   2.5084294038690E+03
(PID.TID 0000.0001) %MON ad_forcing_adqsw_sd          =   1.2102132769195E+04
(PID.TID 0000.0001) %MON ad_forcing_adqsw_del2        =   5.3971064597126E+02
(PID.TID 0000.0001) %MON ad_forcing_adempmr_max       =  -2.1604267746799E+10
(PID.TID 0000.0001) %MON ad_forcing_adempmr_min       =  -2.1392636923822E+12
(PID.TID 0000.0001) %MON ad_forcing_adempmr_mean      =  -9.4931226045420E+10
(PID.TID 0000.0001) %MON ad_forcing_adempmr_sd        =   1.0308592101767E+11
(PID.TID 0000.0001) %MON ad_forcing_adempmr_del2      =   4.7393860098129E+09
(PID.TID 0000.0001) %MON ad_forcing_adfu_max          =   3.7253422891617E+08
(PID.TID 0000.0001) %MON ad_forcing_adfu_min          =  -2.9253951079639E+08
(PID.TID 0000.0001) %MON ad_forcing_adfu_mean         =  -2.7131253643365E+05
(PID.TID 0000.0001) %MON ad_forcing_adfu_sd           =   2.0825125575004E+07
(PID.TID 0000.0001) %MON ad_forcing_adfu_del2         =   1.2211651098968E+06
(PID.TID 0000.0001) %MON ad_forcing_adfv_max          =   2.4669138467673E+08
(PID.TID 0000.0001) %MON ad_forcing_adfv_min          =  -3.6226572686511E+08
(PID.TID 0000.0001) %MON ad_forcing_adfv_mean         =  -3.3057531870591E+06
(PID.TID 0000.0001) %MON ad_forcing_adfv_sd           =   2.4142997319164E+07
(PID.TID 0000.0001) %MON ad_forcing_adfv_del2         =   1.2333778571828E+06
(PID.TID 0000.0001) // =======================================================
(PID.TID 0000.0001) // End MONITOR dynamic field statistics
(PID.TID 0000.0001) // =======================================================
(PID.TID 0000.0001) // =======================================================
(PID.TID 0000.0001) // Begin MONITOR adptracer field statistics
(PID.TID 0000.0001) // =======================================================
(PID.TID 0000.0001) %MON ad_trcstat_adptracer01_max   =   8.6494519331494E+10
(PID.TID 0000.0001) %MON ad_trcstat_adptracer01_min   =  -3.0187173930088E+09
(PID.TID 0000.0001) %MON ad_trcstat_adptracer01_mean  =   7.8922161083760E+08
(PID.TID 0000.0001) %MON ad_trcstat_adptracer01_sd    =   7.4504715673782E+09
(PID.TID 0000.0001) %MON ad_trcstat_adptracer01_del2  =   2.9478053011475E+07
(PID.TID 0000.0001) // =======================================================
(PID.TID 0000.0001) // End MONITOR ptracers field statistics
(PID.TID 0000.0001) // =======================================================
 cg2d: Sum(rhs),rhsMax =   4.08562073062058E-14  8.76214364093780E+00
(PID.TID 0000.0001) SOLVE_FOR_PRESSURE: putPmEinXvector =    F
 cg2d: Sum(rhs),rhsMax =   3.46389583683049E-14  8.55254939901145E+00
(PID.TID 0000.0001) // =======================================================
(PID.TID 0000.0001) // Begin MONITOR dynamic field statistics
(PID.TID 0000.0001) // =======================================================
(PID.TID 0000.0001) %MON ad_time_tsnumber             =                     1
(PID.TID 0000.0001) %MON ad_time_secondsf             =   8.6400000000000E+04
(PID.TID 0000.0001) %MON ad_dynstat_adeta_max         =   3.5892391384041E+07
(PID.TID 0000.0001) %MON ad_dynstat_adeta_min         =  -3.1457559019126E+07
(PID.TID 0000.0001) %MON ad_dynstat_adeta_mean        =   1.4201433874093E+04
(PID.TID 0000.0001) %MON ad_dynstat_adeta_sd          =   3.9418415303670E+06
(PID.TID 0000.0001) %MON ad_dynstat_adeta_del2        =   2.0879245589030E+05
(PID.TID 0000.0001) %MON ad_dynstat_aduvel_max        =   5.4879345498419E+09
(PID.TID 0000.0001) %MON ad_dynstat_aduvel_min        =  -4.9997651910778E+09
(PID.TID 0000.0001) %MON ad_dynstat_aduvel_mean       =   4.2172425484116E+06
(PID.TID 0000.0001) %MON ad_dynstat_aduvel_sd         =   6.7140222191765E+07
(PID.TID 0000.0001) %MON ad_dynstat_aduvel_del2       =   1.8042664228536E+06
(PID.TID 0000.0001) %MON ad_dynstat_advvel_max        =   1.3857105913987E+10
(PID.TID 0000.0001) %MON ad_dynstat_advvel_min        =  -1.5914493743304E+10
(PID.TID 0000.0001) %MON ad_dynstat_advvel_mean       =  -2.3327554103227E+06
(PID.TID 0000.0001) %MON ad_dynstat_advvel_sd         =   1.3806548575619E+08
(PID.TID 0000.0001) %MON ad_dynstat_advvel_del2       =   3.1392893027567E+06
(PID.TID 0000.0001) %MON ad_dynstat_adwvel_max        =   3.1079673819159E+10
(PID.TID 0000.0001) %MON ad_dynstat_adwvel_min        =  -2.9067215980647E+10
(PID.TID 0000.0001) %MON ad_dynstat_adwvel_mean       =  -6.7745473077401E+04
(PID.TID 0000.0001) %MON ad_dynstat_adwvel_sd         =   2.8007945780362E+08
(PID.TID 0000.0001) %MON ad_dynstat_adwvel_del2       =   4.5928942998004E+06
(PID.TID 0000.0001) %MON ad_dynstat_adtheta_max       =   1.4726815389475E+11
(PID.TID 0000.0001) %MON ad_dynstat_adtheta_min       =  -1.4716187194708E+11
(PID.TID 0000.0001) %MON ad_dynstat_adtheta_mean      =  -2.7892575610473E+05
(PID.TID 0000.0001) %MON ad_dynstat_adtheta_sd        =   7.5432130870203E+08
(PID.TID 0000.0001) %MON ad_dynstat_adtheta_del2      =   2.9895200059452E+07
(PID.TID 0000.0001) %MON ad_dynstat_adsalt_max        =   5.4144064540822E+11
(PID.TID 0000.0001) %MON ad_dynstat_adsalt_min        =  -5.4534160523186E+11
(PID.TID 0000.0001) %MON ad_dynstat_adsalt_mean       =  -6.5427775499297E+07
(PID.TID 0000.0001) %MON ad_dynstat_adsalt_sd         =   2.9004788364158E+09
(PID.TID 0000.0001) %MON ad_dynstat_adsalt_del2       =   1.1064739600569E+08
(PID.TID 0000.0001) %MON ad_forcing_adqnet_max        =   1.2411015571312E+05
(PID.TID 0000.0001) %MON ad_forcing_adqnet_min        =  -1.7873064648991E+07
(PID.TID 0000.0001) %MON ad_forcing_adqnet_mean       =  -1.7446550700658E+05
(PID.TID 0000.0001) %MON ad_forcing_adqnet_sd         =   8.8623164006776E+05
(PID.TID 0000.0001) %MON ad_forcing_adqnet_del2       =   4.0760397362690E+04
(PID.TID 0000.0001) %MON ad_forcing_adqsw_max         =   1.0482119846416E+06
(PID.TID 0000.0001) %MON ad_forcing_adqsw_min         =  -9.7666411880318E+02
(PID.TID 0000.0001) %MON ad_forcing_adqsw_mean        =   1.0498933974445E+04
(PID.TID 0000.0001) %MON ad_forcing_adqsw_sd          =   5.2713244702136E+04
(PID.TID 0000.0001) %MON ad_forcing_adqsw_del2        =   2.4184824961803E+03
(PID.TID 0000.0001) %MON ad_forcing_adempmr_max       =  -7.6746566152670E+10
(PID.TID 0000.0001) %MON ad_forcing_adempmr_min       =  -9.3797719288338E+12
(PID.TID 0000.0001) %MON ad_forcing_adempmr_mean      =  -3.5312822365780E+11
(PID.TID 0000.0001) %MON ad_forcing_adempmr_sd        =   4.4844473131345E+11
(PID.TID 0000.0001) %MON ad_forcing_adempmr_del2      =   2.1067550938562E+10
(PID.TID 0000.0001) %MON ad_forcing_adfu_max          =   6.6483680898548E+08
(PID.TID 0000.0001) %MON ad_forcing_adfu_min          =  -6.7803265163052E+08
(PID.TID 0000.0001) %MON ad_forcing_adfu_mean         =  -3.8322242573719E+06
(PID.TID 0000.0001) %MON ad_forcing_adfu_sd           =   4.8769547188243E+07
(PID.TID 0000.0001) %MON ad_forcing_adfu_del2         =   3.0604233754893E+06
(PID.TID 0000.0001) %MON ad_forcing_adfv_max          =   5.1024552499184E+08
(PID.TID 0000.0001) %MON ad_forcing_adfv_min          =  -1.6546227780042E+09
(PID.TID 0000.0001) %MON ad_forcing_adfv_mean         =  -1.5951948484666E+07
(PID.TID 0000.0001) %MON ad_forcing_adfv_sd           =   8.8460307351447E+07
(PID.TID 0000.0001) %MON ad_forcing_adfv_del2         =   4.2899249614242E+06
(PID.TID 0000.0001) // =======================================================
(PID.TID 0000.0001) // End MONITOR dynamic field statistics
(PID.TID 0000.0001) // =======================================================
(PID.TID 0000.0001) // =======================================================
(PID.TID 0000.0001) // Begin MONITOR adptracer field statistics
(PID.TID 0000.0001) // =======================================================
(PID.TID 0000.0001) %MON ad_trcstat_adptracer01_max   =   1.1614531588349E+11
(PID.TID 0000.0001) %MON ad_trcstat_adptracer01_min   =  -4.7103004557489E+09
(PID.TID 0000.0001) %MON ad_trcstat_adptracer01_mean  =   1.0523170575552E+09
(PID.TID 0000.0001) %MON ad_trcstat_adptracer01_sd    =   9.9236962446790E+09
(PID.TID 0000.0001) %MON ad_trcstat_adptracer01_del2  =   3.9308844834979E+07
(PID.TID 0000.0001) // =======================================================
(PID.TID 0000.0001) // End MONITOR ptracers field statistics
(PID.TID 0000.0001) // =======================================================
(PID.TID 0000.0001) SOLVE_FOR_PRESSURE: putPmEinXvector =    F
 cg2d: Sum(rhs),rhsMax =   3.46389583683049E-14  8.55254939901145E+00
(PID.TID 0000.0001) Start initial hydrostatic pressure computation
(PID.TID 0000.0001) Pressure is predetermined for buoyancyRelation OCEANIC
(PID.TID 0000.0001) 
(PID.TID 0000.0001) // =======================================================
(PID.TID 0000.0001) // Begin MONITOR dynamic field statistics
(PID.TID 0000.0001) // =======================================================
(PID.TID 0000.0001) %MON ad_time_tsnumber             =                     0
(PID.TID 0000.0001) %MON ad_time_secondsf             =   0.0000000000000E+00
(PID.TID 0000.0001) %MON ad_dynstat_adeta_max         =   3.8773484867798E+08
(PID.TID 0000.0001) %MON ad_dynstat_adeta_min         =  -3.7389736147920E+08
(PID.TID 0000.0001) %MON ad_dynstat_adeta_mean        =  -1.1636642294218E+04
(PID.TID 0000.0001) %MON ad_dynstat_adeta_sd          =   1.4973583438382E+07
(PID.TID 0000.0001) %MON ad_dynstat_adeta_del2        =   8.6375767908789E+05
(PID.TID 0000.0001) %MON ad_dynstat_aduvel_max        =   1.7689618940939E+10
(PID.TID 0000.0001) %MON ad_dynstat_aduvel_min        =  -1.5873033798450E+10
(PID.TID 0000.0001) %MON ad_dynstat_aduvel_mean       =  -2.9389651154136E+06
(PID.TID 0000.0001) %MON ad_dynstat_aduvel_sd         =   1.6953040685534E+08
(PID.TID 0000.0001) %MON ad_dynstat_aduvel_del2       =   4.5102699798334E+06
(PID.TID 0000.0001) %MON ad_dynstat_advvel_max        =   4.7526560023180E+10
(PID.TID 0000.0001) %MON ad_dynstat_advvel_min        =  -3.3562482928502E+10
(PID.TID 0000.0001) %MON ad_dynstat_advvel_mean       =  -1.2902728201497E+06
(PID.TID 0000.0001) %MON ad_dynstat_advvel_sd         =   3.6579945972707E+08
(PID.TID 0000.0001) %MON ad_dynstat_advvel_del2       =   1.0432239058956E+07
(PID.TID 0000.0001) %MON ad_dynstat_adwvel_max        =   0.0000000000000E+00
(PID.TID 0000.0001) %MON ad_dynstat_adwvel_min        =   0.0000000000000E+00
(PID.TID 0000.0001) %MON ad_dynstat_adwvel_mean       =   0.0000000000000E+00
(PID.TID 0000.0001) %MON ad_dynstat_adwvel_sd         =   0.0000000000000E+00
(PID.TID 0000.0001) %MON ad_dynstat_adwvel_del2       =   0.0000000000000E+00
(PID.TID 0000.0001) %MON ad_dynstat_adtheta_max       =   1.8391935577541E+11
(PID.TID 0000.0001) %MON ad_dynstat_adtheta_min       =  -1.8644566031815E+11
(PID.TID 0000.0001) %MON ad_dynstat_adtheta_mean      =  -6.0146015946505E+05
(PID.TID 0000.0001) %MON ad_dynstat_adtheta_sd        =   1.2728911912168E+09
(PID.TID 0000.0001) %MON ad_dynstat_adtheta_del2      =   4.5639299202242E+07
(PID.TID 0000.0001) %MON ad_dynstat_adsalt_max        =   6.8904002343120E+11
(PID.TID 0000.0001) %MON ad_dynstat_adsalt_min        =  -6.8450353721835E+11
(PID.TID 0000.0001) %MON ad_dynstat_adsalt_mean       =  -8.1198143757314E+07
(PID.TID 0000.0001) %MON ad_dynstat_adsalt_sd         =   4.8273231505757E+09
(PID.TID 0000.0001) %MON ad_dynstat_adsalt_del2       =   1.6875251113971E+08
(PID.TID 0000.0001) %MON ad_forcing_adqnet_max        =   4.5679177394462E+07
(PID.TID 0000.0001) %MON ad_forcing_adqnet_min        =  -4.2419211945327E+07
(PID.TID 0000.0001) %MON ad_forcing_adqnet_mean       =  -4.1893115658632E+05
(PID.TID 0000.0001) %MON ad_forcing_adqnet_sd         =   2.4085671875257E+06
(PID.TID 0000.0001) %MON ad_forcing_adqnet_del2       =   1.5589313831665E+05
(PID.TID 0000.0001) %MON ad_forcing_adqsw_max         =   2.5224437738310E+06
(PID.TID 0000.0001) %MON ad_forcing_adqsw_min         =  -2.7274905027987E+06
(PID.TID 0000.0001) %MON ad_forcing_adqsw_mean        =   2.5312796286076E+04
(PID.TID 0000.0001) %MON ad_forcing_adqsw_sd          =   1.4397414713467E+05
(PID.TID 0000.0001) %MON ad_forcing_adqsw_del2        =   9.2964602401234E+03
(PID.TID 0000.0001) %MON ad_forcing_adempmr_max       =   2.3306056936123E+13
(PID.TID 0000.0001) %MON ad_forcing_adempmr_min       =  -2.2332386954668E+13
(PID.TID 0000.0001) %MON ad_forcing_adempmr_mean      =  -8.2673035737509E+11
(PID.TID 0000.0001) %MON ad_forcing_adempmr_sd        =   1.2259506525706E+12
(PID.TID 0000.0001) %MON ad_forcing_adempmr_del2      =   8.0691513884282E+10
(PID.TID 0000.0001) %MON ad_forcing_adfu_max          =   8.6834461007508E+08
(PID.TID 0000.0001) %MON ad_forcing_adfu_min          =  -1.6037774440816E+09
(PID.TID 0000.0001) %MON ad_forcing_adfu_mean         =  -1.0150970448950E+07
(PID.TID 0000.0001) %MON ad_forcing_adfu_sd           =   8.1784173588335E+07
(PID.TID 0000.0001) %MON ad_forcing_adfu_del2         =   4.7307209133703E+06
(PID.TID 0000.0001) %MON ad_forcing_adfv_max          =   1.4320119711674E+09
(PID.TID 0000.0001) %MON ad_forcing_adfv_min          =  -2.4642219391646E+09
(PID.TID 0000.0001) %MON ad_forcing_adfv_mean         =  -3.0691129360247E+07
(PID.TID 0000.0001) %MON ad_forcing_adfv_sd           =   1.6244473407503E+08
(PID.TID 0000.0001) %MON ad_forcing_adfv_del2         =   9.2119815712622E+06
(PID.TID 0000.0001) // =======================================================
(PID.TID 0000.0001) // End MONITOR dynamic field statistics
(PID.TID 0000.0001) // =======================================================
(PID.TID 0000.0001) // =======================================================
(PID.TID 0000.0001) // Begin MONITOR adptracer field statistics
(PID.TID 0000.0001) // =======================================================
(PID.TID 0000.0001) %MON ad_trcstat_adptracer01_max   =   1.1682725519285E+11
(PID.TID 0000.0001) %MON ad_trcstat_adptracer01_min   =  -5.1528069595464E+09
(PID.TID 0000.0001) %MON ad_trcstat_adptracer01_mean  =   1.0524167305584E+09
(PID.TID 0000.0001) %MON ad_trcstat_adptracer01_sd    =   9.9046767468981E+09
(PID.TID 0000.0001) %MON ad_trcstat_adptracer01_del2  =   3.9383000935881E+07
(PID.TID 0000.0001) // =======================================================
(PID.TID 0000.0001) // End MONITOR ptracers field statistics
(PID.TID 0000.0001) // =======================================================
(PID.TID 0000.0001) // =======================================================
(PID.TID 0000.0001) // Gradient-check starts (grdchk_main)
(PID.TID 0000.0001) // =======================================================
(PID.TID 0000.0001) grdchk reference fc: fcref       =  1.84096178634599E+14
grad-res -------------------------------
 grad-res  proc    #    i    j    k   bi   bj iobc       fc ref            fc + eps           fc - eps
 grad-res  proc    #    i    j    k   bi   bj iobc      adj grad            fd grad          1 - fd/adj
 grad-res exact position met: 
 grad-res     0 1881   15    5    4    1    1
(PID.TID 0000.0001) ====== Starts gradient-check number   1 (=ichknum) =======
 ph-test icomp, ncvarcomp, ichknum         1881       37994           1
 ph-grd _loc: bi, bj, icomptest, ichknum            1           1           0           1
 ph-grd _loc: bi, bj, icomptest, ichknum            1           1         616           1
 ph-grd _loc: bi, bj, icomptest, ichknum            1           1        1232           1
 ph-grd _loc: bi, bj, icomptest, ichknum            1           1        1848           1
 ph-grd -->hit<--           15           5           4           1
(PID.TID 0000.0001) grdchk pos: i,j,k=   15    5    4 ; bi,bj=   1   1 ; iobc=  1 ; rec=   1
(PID.TID 0000.0001) Start initial hydrostatic pressure computation
(PID.TID 0000.0001) Pressure is predetermined for buoyancyRelation OCEANIC
(PID.TID 0000.0001) 
(PID.TID 0000.0001) // =======================================================
(PID.TID 0000.0001) // Model current state
(PID.TID 0000.0001) // =======================================================
(PID.TID 0000.0001) 
(PID.TID 0000.0001) SOLVE_FOR_PRESSURE: putPmEinXvector =    F
 cg2d: Sum(rhs),rhsMax =   3.46389583683049E-14  8.55254939901145E+00
 cg2d: Sum(rhs),rhsMax =   4.08562073062058E-14  8.76214364093780E+00
 cg2d: Sum(rhs),rhsMax =  -6.17284001691587E-14  8.25300027515378E+00
 cg2d: Sum(rhs),rhsMax =   5.95079541199084E-14  7.49420565257970E+00
(PID.TID 0000.0001) Did not write pickup because writePickupAtEnd = FALSE
  early fc =  0.000000000000000D+00
 --> objf_tracer(bi,bj) =  0.513226233165190D+14
 --> objf_tracer(bi,bj) =  0.579128875719650D+14
 --> objf_tracer(bi,bj) =  0.266990510053085D+14
 --> objf_tracer(bi,bj) =  0.481616167351798D+14
  local fc =  0.184096178628972D+15
 global fc =  0.184096178628972D+15
(PID.TID 0000.0001) grdchk perturb(+)fc: fcpertplus  =  1.84096178628972E+14
(PID.TID 0000.0001) Start initial hydrostatic pressure computation
(PID.TID 0000.0001) Pressure is predetermined for buoyancyRelation OCEANIC
(PID.TID 0000.0001) 
(PID.TID 0000.0001) // =======================================================
(PID.TID 0000.0001) // Model current state
(PID.TID 0000.0001) // =======================================================
(PID.TID 0000.0001) 
(PID.TID 0000.0001) SOLVE_FOR_PRESSURE: putPmEinXvector =    F
 cg2d: Sum(rhs),rhsMax =   3.46389583683049E-14  8.55254939901145E+00
 cg2d: Sum(rhs),rhsMax =   4.08562073062058E-14  8.76214364093780E+00
 cg2d: Sum(rhs),rhsMax =  -6.17284001691587E-14  8.25300027515378E+00
 cg2d: Sum(rhs),rhsMax =   5.95079541199084E-14  7.49420565257970E+00
(PID.TID 0000.0001) Did not write pickup because writePickupAtEnd = FALSE
  early fc =  0.000000000000000D+00
 --> objf_tracer(bi,bj) =  0.513226233277715D+14
 --> objf_tracer(bi,bj) =  0.579128875719650D+14
 --> objf_tracer(bi,bj) =  0.266990510053085D+14
 --> objf_tracer(bi,bj) =  0.481616167351798D+14
  local fc =  0.184096178640225D+15
 global fc =  0.184096178640225D+15
(PID.TID 0000.0001) grdchk perturb(-)fc: fcpertminus =  1.84096178640225E+14
grad-res -------------------------------
 grad-res     0    1   15    5    4    1    1    1   1.84096178635E+14  1.84096178629E+14  1.84096178640E+14
 grad-res     0    1    1 1881    0    1    1    1  -5.62626183501E+07 -5.62626562500E+07 -6.73624518832E-07
(PID.TID 0000.0001)  ADM  ref_cost_function      =  1.84096178634599E+14
(PID.TID 0000.0001)  ADM  adjoint_gradient       = -5.62626183501208E+07
(PID.TID 0000.0001)  ADM  finite-diff_grad       = -5.62626562500000E+07
(PID.TID 0000.0001) ====== End of gradient-check number   1 (ierr=  0) =======
(PID.TID 0000.0001) ====== Starts gradient-check number   2 (=ichknum) =======
 ph-test icomp, ncvarcomp, ichknum         1882       37994           2
 ph-grd _loc: bi, bj, icomptest, ichknum            1           1        1881           2
 ph-grd -->hit<--           16           5           4           1
(PID.TID 0000.0001) grdchk pos: i,j,k=   16    5    4 ; bi,bj=   1   1 ; iobc=  1 ; rec=   1
(PID.TID 0000.0001) Start initial hydrostatic pressure computation
(PID.TID 0000.0001) Pressure is predetermined for buoyancyRelation OCEANIC
(PID.TID 0000.0001) 
(PID.TID 0000.0001) // =======================================================
(PID.TID 0000.0001) // Model current state
(PID.TID 0000.0001) // =======================================================
(PID.TID 0000.0001) 
(PID.TID 0000.0001) SOLVE_FOR_PRESSURE: putPmEinXvector =    F
 cg2d: Sum(rhs),rhsMax =   3.46389583683049E-14  8.55254939901145E+00
 cg2d: Sum(rhs),rhsMax =   4.08562073062058E-14  8.76214364093780E+00
 cg2d: Sum(rhs),rhsMax =  -6.17284001691587E-14  8.25300027515378E+00
 cg2d: Sum(rhs),rhsMax =   5.95079541199084E-14  7.49420565257970E+00
(PID.TID 0000.0001) Did not write pickup because writePickupAtEnd = FALSE
  early fc =  0.000000000000000D+00
 --> objf_tracer(bi,bj) =  0.513226233185266D+14
 --> objf_tracer(bi,bj) =  0.579128875719650D+14
 --> objf_tracer(bi,bj) =  0.266990510053085D+14
 --> objf_tracer(bi,bj) =  0.481616167351798D+14
  local fc =  0.184096178630980D+15
 global fc =  0.184096178630980D+15
(PID.TID 0000.0001) grdchk perturb(+)fc: fcpertplus  =  1.84096178630980E+14
(PID.TID 0000.0001) Start initial hydrostatic pressure computation
(PID.TID 0000.0001) Pressure is predetermined for buoyancyRelation OCEANIC
(PID.TID 0000.0001) 
(PID.TID 0000.0001) // =======================================================
(PID.TID 0000.0001) // Model current state
(PID.TID 0000.0001) // =======================================================
(PID.TID 0000.0001) 
(PID.TID 0000.0001) SOLVE_FOR_PRESSURE: putPmEinXvector =    F
 cg2d: Sum(rhs),rhsMax =   3.46389583683049E-14  8.55254939901145E+00
 cg2d: Sum(rhs),rhsMax =   4.08562073062058E-14  8.76214364093780E+00
 cg2d: Sum(rhs),rhsMax =  -6.17284001691587E-14  8.25300027515378E+00
 cg2d: Sum(rhs),rhsMax =   5.95079541199084E-14  7.49420565257970E+00
(PID.TID 0000.0001) Did not write pickup because writePickupAtEnd = FALSE
  early fc =  0.000000000000000D+00
 --> objf_tracer(bi,bj) =  0.513226233257638D+14
 --> objf_tracer(bi,bj) =  0.579128875719650D+14
 --> objf_tracer(bi,bj) =  0.266990510053085D+14
 --> objf_tracer(bi,bj) =  0.481616167351798D+14
  local fc =  0.184096178638217D+15
 global fc =  0.184096178638217D+15
(PID.TID 0000.0001) grdchk perturb(-)fc: fcpertminus =  1.84096178638217E+14
grad-res -------------------------------
 grad-res     0    2   16    5    4    1    1    1   1.84096178635E+14  1.84096178631E+14  1.84096178638E+14
 grad-res     0    2    2 1882    0    1    1    1  -3.61863790669E+07 -3.61864062500E+07 -7.51196234328E-07
(PID.TID 0000.0001)  ADM  ref_cost_function      =  1.84096178634599E+14
(PID.TID 0000.0001)  ADM  adjoint_gradient       = -3.61863790669283E+07
(PID.TID 0000.0001)  ADM  finite-diff_grad       = -3.61864062500000E+07
(PID.TID 0000.0001) ====== End of gradient-check number   2 (ierr=  0) =======
(PID.TID 0000.0001) ====== Starts gradient-check number   3 (=ichknum) =======
 ph-test icomp, ncvarcomp, ichknum         1883       37994           3
 ph-grd _loc: bi, bj, icomptest, ichknum            1           1        1882           3
 ph-grd -->hit<--           17           5           4           1
(PID.TID 0000.0001) grdchk pos: i,j,k=   17    5    4 ; bi,bj=   1   1 ; iobc=  1 ; rec=   1
(PID.TID 0000.0001) Start initial hydrostatic pressure computation
(PID.TID 0000.0001) Pressure is predetermined for buoyancyRelation OCEANIC
(PID.TID 0000.0001) 
(PID.TID 0000.0001) // =======================================================
(PID.TID 0000.0001) // Model current state
(PID.TID 0000.0001) // =======================================================
(PID.TID 0000.0001) 
(PID.TID 0000.0001) SOLVE_FOR_PRESSURE: putPmEinXvector =    F
 cg2d: Sum(rhs),rhsMax =   3.46389583683049E-14  8.55254939901145E+00
 cg2d: Sum(rhs),rhsMax =   4.08562073062058E-14  8.76214364093780E+00
 cg2d: Sum(rhs),rhsMax =  -6.17284001691587E-14  8.25300027515378E+00
 cg2d: Sum(rhs),rhsMax =   5.95079541199084E-14  7.49420565257970E+00
(PID.TID 0000.0001) Did not write pickup because writePickupAtEnd = FALSE
  early fc =  0.000000000000000D+00
 --> objf_tracer(bi,bj) =  0.513226233155238D+14
 --> objf_tracer(bi,bj) =  0.579128875719650D+14
 --> objf_tracer(bi,bj) =  0.266990510053085D+14
 --> objf_tracer(bi,bj) =  0.481616167351798D+14
  local fc =  0.184096178627977D+15
 global fc =  0.184096178627977D+15
(PID.TID 0000.0001) grdchk perturb(+)fc: fcpertplus  =  1.84096178627977E+14
(PID.TID 0000.0001) Start initial hydrostatic pressure computation
(PID.TID 0000.0001) Pressure is predetermined for buoyancyRelation OCEANIC
(PID.TID 0000.0001) 
(PID.TID 0000.0001) // =======================================================
(PID.TID 0000.0001) // Model current state
(PID.TID 0000.0001) // =======================================================
(PID.TID 0000.0001) 
(PID.TID 0000.0001) SOLVE_FOR_PRESSURE: putPmEinXvector =    F
 cg2d: Sum(rhs),rhsMax =   3.46389583683049E-14  8.55254939901145E+00
 cg2d: Sum(rhs),rhsMax =   4.08562073062058E-14  8.76214364093780E+00
 cg2d: Sum(rhs),rhsMax =  -6.17284001691587E-14  8.25300027515378E+00
 cg2d: Sum(rhs),rhsMax =   5.95079541199084E-14  7.49420565257970E+00
(PID.TID 0000.0001) Did not write pickup because writePickupAtEnd = FALSE
  early fc =  0.000000000000000D+00
 --> objf_tracer(bi,bj) =  0.513226233287666D+14
 --> objf_tracer(bi,bj) =  0.579128875719650D+14
 --> objf_tracer(bi,bj) =  0.266990510053085D+14
 --> objf_tracer(bi,bj) =  0.481616167351798D+14
  local fc =  0.184096178641220D+15
 global fc =  0.184096178641220D+15
(PID.TID 0000.0001) grdchk perturb(-)fc: fcpertminus =  1.84096178641220E+14
grad-res -------------------------------
 grad-res     0    3   17    5    4    1    1    1   1.84096178635E+14  1.84096178628E+14  1.84096178641E+14
 grad-res     0    3    3 1883    0    1    1    1  -6.62138741553E+07 -6.62139062500E+07 -4.84712138205E-07
(PID.TID 0000.0001)  ADM  ref_cost_function      =  1.84096178634599E+14
(PID.TID 0000.0001)  ADM  adjoint_gradient       = -6.62138741553315E+07
(PID.TID 0000.0001)  ADM  finite-diff_grad       = -6.62139062500000E+07
(PID.TID 0000.0001) ====== End of gradient-check number   3 (ierr=  0) =======
(PID.TID 0000.0001) ====== Starts gradient-check number   4 (=ichknum) =======
 ph-test icomp, ncvarcomp, ichknum         1884       37994           4
 ph-grd _loc: bi, bj, icomptest, ichknum            1           1        1883           4
 ph-grd -->hit<--           18           5           4           1
(PID.TID 0000.0001) grdchk pos: i,j,k=   18    5    4 ; bi,bj=   1   1 ; iobc=  1 ; rec=   1
(PID.TID 0000.0001) Start initial hydrostatic pressure computation
(PID.TID 0000.0001) Pressure is predetermined for buoyancyRelation OCEANIC
(PID.TID 0000.0001) 
(PID.TID 0000.0001) // =======================================================
(PID.TID 0000.0001) // Model current state
(PID.TID 0000.0001) // =======================================================
(PID.TID 0000.0001) 
(PID.TID 0000.0001) SOLVE_FOR_PRESSURE: putPmEinXvector =    F
 cg2d: Sum(rhs),rhsMax =   3.46389583683049E-14  8.55254939901145E+00
 cg2d: Sum(rhs),rhsMax =   4.08562073062058E-14  8.76214364093780E+00
 cg2d: Sum(rhs),rhsMax =  -6.17284001691587E-14  8.25300027515378E+00
 cg2d: Sum(rhs),rhsMax =   5.95079541199084E-14  7.49420565257970E+00
(PID.TID 0000.0001) Did not write pickup because writePickupAtEnd = FALSE
  early fc =  0.000000000000000D+00
 --> objf_tracer(bi,bj) =  0.513226233171156D+14
 --> objf_tracer(bi,bj) =  0.579128875719650D+14
 --> objf_tracer(bi,bj) =  0.266990510053085D+14
 --> objf_tracer(bi,bj) =  0.481616167351798D+14
  local fc =  0.184096178629569D+15
 global fc =  0.184096178629569D+15
(PID.TID 0000.0001) grdchk perturb(+)fc: fcpertplus  =  1.84096178629569E+14
(PID.TID 0000.0001) Start initial hydrostatic pressure computation
(PID.TID 0000.0001) Pressure is predetermined for buoyancyRelation OCEANIC
(PID.TID 0000.0001) 
(PID.TID 0000.0001) // =======================================================
(PID.TID 0000.0001) // Model current state
(PID.TID 0000.0001) // =======================================================
(PID.TID 0000.0001) 
(PID.TID 0000.0001) SOLVE_FOR_PRESSURE: putPmEinXvector =    F
 cg2d: Sum(rhs),rhsMax =   3.46389583683049E-14  8.55254939901145E+00
 cg2d: Sum(rhs),rhsMax =   4.08562073062058E-14  8.76214364093780E+00
 cg2d: Sum(rhs),rhsMax =  -6.17284001691587E-14  8.25300027515378E+00
 cg2d: Sum(rhs),rhsMax =   5.95079541199084E-14  7.49420565257970E+00
(PID.TID 0000.0001) Did not write pickup because writePickupAtEnd = FALSE
  early fc =  0.000000000000000D+00
 --> objf_tracer(bi,bj) =  0.513226233271749D+14
 --> objf_tracer(bi,bj) =  0.579128875719650D+14
 --> objf_tracer(bi,bj) =  0.266990510053085D+14
 --> objf_tracer(bi,bj) =  0.481616167351798D+14
  local fc =  0.184096178639628D+15
 global fc =  0.184096178639628D+15
(PID.TID 0000.0001) grdchk perturb(-)fc: fcpertminus =  1.84096178639628E+14
grad-res -------------------------------
 grad-res     0    4   18    5    4    1    1    1   1.84096178635E+14  1.84096178630E+14  1.84096178640E+14
 grad-res     0    4    4 1884    0    1    1    1  -5.02964697308E+07 -5.02964062500E+07  1.26213162943E-06
(PID.TID 0000.0001)  ADM  ref_cost_function      =  1.84096178634599E+14
(PID.TID 0000.0001)  ADM  adjoint_gradient       = -5.02964697307653E+07
(PID.TID 0000.0001)  ADM  finite-diff_grad       = -5.02964062500000E+07
(PID.TID 0000.0001) ====== End of gradient-check number   4 (ierr=  0) =======
(PID.TID 0000.0001) ====== Starts gradient-check number   5 (=ichknum) =======
 ph-test icomp, ncvarcomp, ichknum         1885       37994           5
 ph-grd _loc: bi, bj, icomptest, ichknum            1           1        1884           5
 ph-grd -->hit<--           19           5           4           1
(PID.TID 0000.0001) grdchk pos: i,j,k=   19    5    4 ; bi,bj=   1   1 ; iobc=  1 ; rec=   1
(PID.TID 0000.0001) Start initial hydrostatic pressure computation
(PID.TID 0000.0001) Pressure is predetermined for buoyancyRelation OCEANIC
(PID.TID 0000.0001) 
(PID.TID 0000.0001) // =======================================================
(PID.TID 0000.0001) // Model current state
(PID.TID 0000.0001) // =======================================================
(PID.TID 0000.0001) 
(PID.TID 0000.0001) SOLVE_FOR_PRESSURE: putPmEinXvector =    F
 cg2d: Sum(rhs),rhsMax =   3.46389583683049E-14  8.55254939901145E+00
 cg2d: Sum(rhs),rhsMax =   4.08562073062058E-14  8.76214364093780E+00
 cg2d: Sum(rhs),rhsMax =  -6.17284001691587E-14  8.25300027515378E+00
 cg2d: Sum(rhs),rhsMax =   5.95079541199084E-14  7.49420565257970E+00
(PID.TID 0000.0001) Did not write pickup because writePickupAtEnd = FALSE
  early fc =  0.000000000000000D+00
 --> objf_tracer(bi,bj) =  0.513226233170011D+14
 --> objf_tracer(bi,bj) =  0.579128875719650D+14
 --> objf_tracer(bi,bj) =  0.266990510053085D+14
 --> objf_tracer(bi,bj) =  0.481616167351798D+14
  local fc =  0.184096178629454D+15
 global fc =  0.184096178629454D+15
(PID.TID 0000.0001) grdchk perturb(+)fc: fcpertplus  =  1.84096178629454E+14
(PID.TID 0000.0001) Start initial hydrostatic pressure computation
(PID.TID 0000.0001) Pressure is predetermined for buoyancyRelation OCEANIC
(PID.TID 0000.0001) 
(PID.TID 0000.0001) // =======================================================
(PID.TID 0000.0001) // Model current state
(PID.TID 0000.0001) // =======================================================
(PID.TID 0000.0001) 
(PID.TID 0000.0001) SOLVE_FOR_PRESSURE: putPmEinXvector =    F
 cg2d: Sum(rhs),rhsMax =   3.46389583683049E-14  8.55254939901145E+00
 cg2d: Sum(rhs),rhsMax =   4.08562073062058E-14  8.76214364093780E+00
 cg2d: Sum(rhs),rhsMax =  -6.17284001691587E-14  8.25300027515378E+00
 cg2d: Sum(rhs),rhsMax =   5.95079541199084E-14  7.49420565257970E+00
(PID.TID 0000.0001) Did not write pickup because writePickupAtEnd = FALSE
  early fc =  0.000000000000000D+00
 --> objf_tracer(bi,bj) =  0.513226233272893D+14
 --> objf_tracer(bi,bj) =  0.579128875719650D+14
 --> objf_tracer(bi,bj) =  0.266990510053085D+14
 --> objf_tracer(bi,bj) =  0.481616167351798D+14
  local fc =  0.184096178639743D+15
 global fc =  0.184096178639743D+15
(PID.TID 0000.0001) grdchk perturb(-)fc: fcpertminus =  1.84096178639743E+14
grad-res -------------------------------
 grad-res     0    5   19    5    4    1    1    1   1.84096178635E+14  1.84096178629E+14  1.84096178640E+14
 grad-res     0    5    5 1885    0    1    1    1  -5.14407493246E+07 -5.14407812500E+07 -6.20625674408E-07
(PID.TID 0000.0001)  ADM  ref_cost_function      =  1.84096178634599E+14
(PID.TID 0000.0001)  ADM  adjoint_gradient       = -5.14407493245503E+07
(PID.TID 0000.0001)  ADM  finite-diff_grad       = -5.14407812500000E+07
(PID.TID 0000.0001) ====== End of gradient-check number   5 (ierr=  0) =======
(PID.TID 0000.0001) 
(PID.TID 0000.0001) // =======================================================
(PID.TID 0000.0001) // Gradient check results  >>> START <<<
(PID.TID 0000.0001) // =======================================================
(PID.TID 0000.0001) 
(PID.TID 0000.0001)  EPS =   1.000000E-04
(PID.TID 0000.0001) 
(PID.TID 0000.0001) grdchk output h.p:  Id Itile Jtile LAYER   bi   bj   X(Id)           X(Id)+/-EPS
(PID.TID 0000.0001) grdchk output h.c:  Id  FC                   FC1                  FC2
(PID.TID 0000.0001) grdchk output h.g:  Id     FC1-FC2/(2*EPS)      ADJ GRAD(FC)         1-FDGRD/ADGRD
(PID.TID 0000.0001) 
(PID.TID 0000.0001) grdchk output (p):   1    15     5     4    1    1   0.000000000E+00 -1.000000000E-04
(PID.TID 0000.0001) grdchk output (c):   1  1.8409617863460E+14  1.8409617862897E+14  1.8409617864022E+14
(PID.TID 0000.0001) grdchk output (g):   1    -5.6262656250000E+07 -5.6262618350121E+07 -6.7362451883213E-07
(PID.TID 0000.0001) 
(PID.TID 0000.0001) grdchk output (p):   2    16     5     4    1    1   0.000000000E+00 -1.000000000E-04
(PID.TID 0000.0001) grdchk output (c):   2  1.8409617863460E+14  1.8409617863098E+14  1.8409617863822E+14
(PID.TID 0000.0001) grdchk output (g):   2    -3.6186406250000E+07 -3.6186379066928E+07 -7.5119623432762E-07
(PID.TID 0000.0001) 
(PID.TID 0000.0001) grdchk output (p):   3    17     5     4    1    1   0.000000000E+00 -1.000000000E-04
(PID.TID 0000.0001) grdchk output (c):   3  1.8409617863460E+14  1.8409617862798E+14  1.8409617864122E+14
(PID.TID 0000.0001) grdchk output (g):   3    -6.6213906250000E+07 -6.6213874155331E+07 -4.8471213820456E-07
(PID.TID 0000.0001) 
(PID.TID 0000.0001) grdchk output (p):   4    18     5     4    1    1   0.000000000E+00 -1.000000000E-04
(PID.TID 0000.0001) grdchk output (c):   4  1.8409617863460E+14  1.8409617862957E+14  1.8409617863963E+14
(PID.TID 0000.0001) grdchk output (g):   4    -5.0296406250000E+07 -5.0296469730765E+07  1.2621316294315E-06
(PID.TID 0000.0001) 
(PID.TID 0000.0001) grdchk output (p):   5    19     5     4    1    1   0.000000000E+00 -1.000000000E-04
(PID.TID 0000.0001) grdchk output (c):   5  1.8409617863460E+14  1.8409617862945E+14  1.8409617863974E+14
(PID.TID 0000.0001) grdchk output (g):   5    -5.1440781250000E+07 -5.1440749324550E+07 -6.2062567440790E-07
(PID.TID 0000.0001) 
(PID.TID 0000.0001) grdchk  summary  :  RMS of    5 ratios =  8.0388607520073E-07
(PID.TID 0000.0001) 
(PID.TID 0000.0001) // =======================================================
(PID.TID 0000.0001) // Gradient check results  >>> END <<<
(PID.TID 0000.0001) // =======================================================
(PID.TID 0000.0001) 
(PID.TID 0000.0001)   Seconds in section "ALL                    [THE_MODEL_MAIN]":
(PID.TID 0000.0001)           User time:   459.80110158585012
(PID.TID 0000.0001)         System time:   1.2628080325666815
(PID.TID 0000.0001)     Wall clock time:   462.21709108352661
(PID.TID 0000.0001)          No. starts:           1
(PID.TID 0000.0001)           No. stops:           1
(PID.TID 0000.0001)   Seconds in section "INITIALISE_FIXED       [THE_MODEL_MAIN]":
(PID.TID 0000.0001)           User time:  0.20096999965608120
(PID.TID 0000.0001)         System time:  2.09969992283731699E-002
(PID.TID 0000.0001)     Wall clock time:  0.23117613792419434
(PID.TID 0000.0001)          No. starts:           1
(PID.TID 0000.0001)           No. stops:           1
(PID.TID 0000.0001)   Seconds in section "ADTHE_MAIN_LOOP          [ADJOINT RUN]":
(PID.TID 0000.0001)           User time:   359.84830053150654
(PID.TID 0000.0001)         System time:  0.55691498145461082
(PID.TID 0000.0001)     Wall clock time:   361.26109695434570
(PID.TID 0000.0001)          No. starts:           1
(PID.TID 0000.0001)           No. stops:           1
(PID.TID 0000.0001)   Seconds in section "FORWARD_STEP        [MAIN_DO_LOOP]":
(PID.TID 0000.0001)           User time:   106.95675146579742
(PID.TID 0000.0001)         System time:  0.69489501416683197
(PID.TID 0000.0001)     Wall clock time:   107.97280836105347
(PID.TID 0000.0001)          No. starts:          44
(PID.TID 0000.0001)           No. stops:          44
(PID.TID 0000.0001)   Seconds in section "UPDATE_R_STAR       [FORWARD_STEP]":
(PID.TID 0000.0001)           User time:   1.5577862262725830
(PID.TID 0000.0001)         System time:  1.49959325790405273E-002
(PID.TID 0000.0001)     Wall clock time:   1.5799503326416016
(PID.TID 0000.0001)          No. starts:          88
(PID.TID 0000.0001)           No. stops:          88
(PID.TID 0000.0001)   Seconds in section "LOAD_FIELDS_DRIVER  [FORWARD_STEP]":
(PID.TID 0000.0001)           User time:  3.02124023437500000E-003
(PID.TID 0000.0001)         System time:   0.0000000000000000
(PID.TID 0000.0001)     Wall clock time:  1.20997428894042969E-003
(PID.TID 0000.0001)          No. starts:          44
(PID.TID 0000.0001)           No. stops:          44
(PID.TID 0000.0001)   Seconds in section "EXTERNAL_FLDS_LOAD [LOAD_FLDS_DRIVER]":
(PID.TID 0000.0001)           User time:  2.01416015625000000E-003
(PID.TID 0000.0001)         System time:   0.0000000000000000
(PID.TID 0000.0001)     Wall clock time:  4.91857528686523438E-004
(PID.TID 0000.0001)          No. starts:          52
(PID.TID 0000.0001)           No. stops:          52
(PID.TID 0000.0001)   Seconds in section "DO_ATMOSPHERIC_PHYS [FORWARD_STEP]":
(PID.TID 0000.0001)           User time:  6.09925389289855957E-002
(PID.TID 0000.0001)         System time:   0.0000000000000000
(PID.TID 0000.0001)     Wall clock time:  5.98890781402587891E-002
(PID.TID 0000.0001)          No. starts:          44
(PID.TID 0000.0001)           No. stops:          44
(PID.TID 0000.0001)   Seconds in section "DO_OCEANIC_PHYS     [FORWARD_STEP]":
(PID.TID 0000.0001)           User time:   10.605405747890472
(PID.TID 0000.0001)         System time:  7.39899426698684692E-002
(PID.TID 0000.0001)     Wall clock time:   10.704357862472534
(PID.TID 0000.0001)          No. starts:          44
(PID.TID 0000.0001)           No. stops:          44
(PID.TID 0000.0001)   Seconds in section "DYNAMICS            [FORWARD_STEP]":
(PID.TID 0000.0001)           User time:   17.702197670936584
(PID.TID 0000.0001)         System time:  0.10298509895801544
(PID.TID 0000.0001)     Wall clock time:   17.851194858551025
(PID.TID 0000.0001)          No. starts:          44
(PID.TID 0000.0001)           No. stops:          44
(PID.TID 0000.0001)   Seconds in section "UPDATE_CG2D         [FORWARD_STEP]":
(PID.TID 0000.0001)           User time:  0.40290701389312744
(PID.TID 0000.0001)         System time:   0.0000000000000000
(PID.TID 0000.0001)     Wall clock time:  0.39868545532226563
(PID.TID 0000.0001)          No. starts:          44
(PID.TID 0000.0001)           No. stops:          44
(PID.TID 0000.0001)   Seconds in section "SOLVE_FOR_PRESSURE  [FORWARD_STEP]":
(PID.TID 0000.0001)           User time:   13.771058917045593
(PID.TID 0000.0001)         System time:  7.89879560470581055E-002
(PID.TID 0000.0001)     Wall clock time:   13.890328884124756
(PID.TID 0000.0001)          No. starts:          44
(PID.TID 0000.0001)           No. stops:          44
(PID.TID 0000.0001)   Seconds in section "MOM_CORRECTION_STEP [FORWARD_STEP]":
(PID.TID 0000.0001)           User time:  0.40888798236846924
(PID.TID 0000.0001)         System time:  2.99990177154541016E-003
(PID.TID 0000.0001)     Wall clock time:  0.41219282150268555
(PID.TID 0000.0001)          No. starts:          44
(PID.TID 0000.0001)           No. stops:          44
(PID.TID 0000.0001)   Seconds in section "INTEGR_CONTINUITY   [FORWARD_STEP]":
(PID.TID 0000.0001)           User time:   1.2147634029388428
(PID.TID 0000.0001)         System time:  7.99912214279174805E-003
(PID.TID 0000.0001)     Wall clock time:   1.2271900177001953
(PID.TID 0000.0001)          No. starts:          44
(PID.TID 0000.0001)           No. stops:          44
(PID.TID 0000.0001)   Seconds in section "CALC_R_STAR         [FORWARD_STEP]":
(PID.TID 0000.0001)           User time:  0.11692738533020020
(PID.TID 0000.0001)         System time:   0.0000000000000000
(PID.TID 0000.0001)     Wall clock time:  0.11469125747680664
(PID.TID 0000.0001)          No. starts:          44
(PID.TID 0000.0001)           No. stops:          44
(PID.TID 0000.0001)   Seconds in section "BLOCKING_EXCHANGES  [FORWARD_STEP]":
(PID.TID 0000.0001)           User time:   1.8037743568420410
(PID.TID 0000.0001)         System time:  1.39972269535064697E-002
(PID.TID 0000.0001)     Wall clock time:   1.8249166011810303
(PID.TID 0000.0001)          No. starts:          88
(PID.TID 0000.0001)           No. stops:          88
(PID.TID 0000.0001)   Seconds in section "THERMODYNAMICS      [FORWARD_STEP]":
(PID.TID 0000.0001)           User time:   56.804384827613831
(PID.TID 0000.0001)         System time:  0.35294492542743683
(PID.TID 0000.0001)     Wall clock time:   57.330066919326782
(PID.TID 0000.0001)          No. starts:          44
(PID.TID 0000.0001)           No. stops:          44
(PID.TID 0000.0001)   Seconds in section "TRC_CORRECTION_STEP [FORWARD_STEP]":
(PID.TID 0000.0001)           User time:   1.6877582073211670
(PID.TID 0000.0001)         System time:  6.99990987777709961E-003
(PID.TID 0000.0001)     Wall clock time:   1.6993744373321533
(PID.TID 0000.0001)          No. starts:          44
(PID.TID 0000.0001)           No. stops:          44
(PID.TID 0000.0001)   Seconds in section "DO_STATEVARS_TAVE   [FORWARD_STEP]":
(PID.TID 0000.0001)           User time:   0.0000000000000000
(PID.TID 0000.0001)         System time:   0.0000000000000000
(PID.TID 0000.0001)     Wall clock time:  4.65154647827148438E-004
(PID.TID 0000.0001)          No. starts:          44
(PID.TID 0000.0001)           No. stops:          44
(PID.TID 0000.0001)   Seconds in section "MONITOR             [FORWARD_STEP]":
(PID.TID 0000.0001)           User time:  0.47792792320251465
(PID.TID 0000.0001)         System time:   0.0000000000000000
(PID.TID 0000.0001)     Wall clock time:  0.47744441032409668
(PID.TID 0000.0001)          No. starts:          44
(PID.TID 0000.0001)           No. stops:          44
(PID.TID 0000.0001)   Seconds in section "COST_TILE           [FORWARD_STEP]":
(PID.TID 0000.0001)           User time:  2.99072265625000000E-003
(PID.TID 0000.0001)         System time:   0.0000000000000000
(PID.TID 0000.0001)     Wall clock time:  6.82210922241210938E-003
(PID.TID 0000.0001)          No. starts:          44
(PID.TID 0000.0001)           No. stops:          44
(PID.TID 0000.0001)   Seconds in section "DO_THE_MODEL_IO     [FORWARD_STEP]":
(PID.TID 0000.0001)           User time:  0.18197274208068848
(PID.TID 0000.0001)         System time:  1.69979929924011230E-002
(PID.TID 0000.0001)     Wall clock time:  0.21573805809020996
(PID.TID 0000.0001)          No. starts:          44
(PID.TID 0000.0001)           No. stops:          44
(PID.TID 0000.0001)   Seconds in section "PTRACERS_RESET      [FORWARD_STEP]":
(PID.TID 0000.0001)           User time:  1.00708007812500000E-003
(PID.TID 0000.0001)         System time:   0.0000000000000000
(PID.TID 0000.0001)     Wall clock time:  4.37974929809570313E-004
(PID.TID 0000.0001)          No. starts:          44
(PID.TID 0000.0001)           No. stops:          44
(PID.TID 0000.0001)   Seconds in section "DO_WRITE_PICKUP     [FORWARD_STEP]":
(PID.TID 0000.0001)           User time:  0.14197826385498047
(PID.TID 0000.0001)         System time:  2.19970047473907471E-002
(PID.TID 0000.0001)     Wall clock time:  0.16580486297607422
(PID.TID 0000.0001)          No. starts:          44
(PID.TID 0000.0001)           No. stops:          44
(PID.TID 0000.0001)   Seconds in section "GRDCHK_MAIN         [THE_MODEL_MAIN]":
(PID.TID 0000.0001)           User time:   99.751831054687500
(PID.TID 0000.0001)         System time:  0.68489605188369751
(PID.TID 0000.0001)     Wall clock time:   100.72477388381958
(PID.TID 0000.0001)          No. starts:           1
(PID.TID 0000.0001)           No. stops:           1
(PID.TID 0000.0001)   Seconds in section "INITIALISE_VARIA    [THE_MAIN_LOOP]":
(PID.TID 0000.0001)           User time:   2.3426513671875000
(PID.TID 0000.0001)         System time:  1.39980316162109375E-002
(PID.TID 0000.0001)     Wall clock time:   2.3652892112731934
(PID.TID 0000.0001)          No. starts:          10
(PID.TID 0000.0001)           No. stops:          10
(PID.TID 0000.0001)   Seconds in section "MAIN LOOP           [THE_MAIN_LOOP]":
(PID.TID 0000.0001)           User time:   97.169219970703125
(PID.TID 0000.0001)         System time:  0.65490001440048218
(PID.TID 0000.0001)     Wall clock time:   98.105820894241333
(PID.TID 0000.0001)          No. starts:          10
(PID.TID 0000.0001)           No. stops:          10
(PID.TID 0000.0001)   Seconds in section "MAIN_DO_LOOP        [THE_MAIN_LOOP]":
(PID.TID 0000.0001)           User time:   96.602325439453125
(PID.TID 0000.0001)         System time:  0.65090101957321167
(PID.TID 0000.0001)     Wall clock time:   97.534222364425659
(PID.TID 0000.0001)          No. starts:          40
(PID.TID 0000.0001)           No. stops:          40
(PID.TID 0000.0001)   Seconds in section "COST_FINAL         [ADJOINT SPIN-DOWN]":
(PID.TID 0000.0001)           User time:   0.0000000000000000
(PID.TID 0000.0001)         System time:   0.0000000000000000
(PID.TID 0000.0001)     Wall clock time:  4.69684600830078125E-004
(PID.TID 0000.0001)          No. starts:          10
(PID.TID 0000.0001)           No. stops:          10
(PID.TID 0000.0001) // ======================================================
(PID.TID 0000.0001) // Tile <-> Tile communication statistics
(PID.TID 0000.0001) // ======================================================
(PID.TID 0000.0001) // o Tile number: 000001
(PID.TID 0000.0001) //         No. X exchanges =              0
(PID.TID 0000.0001) //            Max. X spins =              0
(PID.TID 0000.0001) //            Min. X spins =     1000000000
(PID.TID 0000.0001) //          Total. X spins =              0
(PID.TID 0000.0001) //            Avg. X spins =       0.00E+00
(PID.TID 0000.0001) //         No. Y exchanges =              0
(PID.TID 0000.0001) //            Max. Y spins =              0
(PID.TID 0000.0001) //            Min. Y spins =     1000000000
(PID.TID 0000.0001) //          Total. Y spins =              0
(PID.TID 0000.0001) //            Avg. Y spins =       0.00E+00
(PID.TID 0000.0001) // o Tile number: 000002
(PID.TID 0000.0001) //         No. X exchanges =              0
(PID.TID 0000.0001) //            Max. X spins =              0
(PID.TID 0000.0001) //            Min. X spins =     1000000000
(PID.TID 0000.0001) //          Total. X spins =              0
(PID.TID 0000.0001) //            Avg. X spins =       0.00E+00
(PID.TID 0000.0001) //         No. Y exchanges =              0
(PID.TID 0000.0001) //            Max. Y spins =              0
(PID.TID 0000.0001) //            Min. Y spins =     1000000000
(PID.TID 0000.0001) //          Total. Y spins =              0
(PID.TID 0000.0001) //            Avg. Y spins =       0.00E+00
(PID.TID 0000.0001) // o Tile number: 000003
(PID.TID 0000.0001) //         No. X exchanges =              0
(PID.TID 0000.0001) //            Max. X spins =              0
(PID.TID 0000.0001) //            Min. X spins =     1000000000
(PID.TID 0000.0001) //          Total. X spins =              0
(PID.TID 0000.0001) //            Avg. X spins =       0.00E+00
(PID.TID 0000.0001) //         No. Y exchanges =              0
(PID.TID 0000.0001) //            Max. Y spins =              0
(PID.TID 0000.0001) //            Min. Y spins =     1000000000
(PID.TID 0000.0001) //          Total. Y spins =              0
(PID.TID 0000.0001) //            Avg. Y spins =       0.00E+00
(PID.TID 0000.0001) // o Tile number: 000004
(PID.TID 0000.0001) //         No. X exchanges =              0
(PID.TID 0000.0001) //            Max. X spins =              0
(PID.TID 0000.0001) //            Min. X spins =     1000000000
(PID.TID 0000.0001) //          Total. X spins =              0
(PID.TID 0000.0001) //            Avg. X spins =       0.00E+00
(PID.TID 0000.0001) //         No. Y exchanges =              0
(PID.TID 0000.0001) //            Max. Y spins =              0
(PID.TID 0000.0001) //            Min. Y spins =     1000000000
(PID.TID 0000.0001) //          Total. Y spins =              0
(PID.TID 0000.0001) //            Avg. Y spins =       0.00E+00
(PID.TID 0000.0001) // o Thread number: 000001
(PID.TID 0000.0001) //            No. barriers =          74012
(PID.TID 0000.0001) //      Max. barrier spins =              1
(PID.TID 0000.0001) //      Min. barrier spins =              1
(PID.TID 0000.0001) //     Total barrier spins =          74012
(PID.TID 0000.0001) //      Avg. barrier spins =       1.00E+00
PROGRAM MAIN: Execution ended Normally
