(PID.TID 0000.0001) 
(PID.TID 0000.0001) // ======================================================
(PID.TID 0000.0001) //                      MITgcm UV
(PID.TID 0000.0001) //                      =========
(PID.TID 0000.0001) // ======================================================
(PID.TID 0000.0001) // execution environment starting up...
(PID.TID 0000.0001) 
(PID.TID 0000.0001) // MITgcmUV version:  checkpoint62c
(PID.TID 0000.0001) // Build user:        jmc
(PID.TID 0000.0001) // Build host:        faulks.csail.mit.edu
(PID.TID 0000.0001) // Build date:        Thu Mar  4 16:34:58 EST 2010
(PID.TID 0000.0001) 
(PID.TID 0000.0001) // =======================================================
(PID.TID 0000.0001) // Execution Environment parameter file "eedata"
(PID.TID 0000.0001) // =======================================================
(PID.TID 0000.0001) ># Example "eedata" file
(PID.TID 0000.0001) ># Lines beginning "#" are comments
(PID.TID 0000.0001) ># nTx - No. threads per process in X
(PID.TID 0000.0001) ># nTy - No. threads per process in Y
(PID.TID 0000.0001) > &EEPARMS
(PID.TID 0000.0001) > nTx=1,nTy=1,
(PID.TID 0000.0001) > &
(PID.TID 0000.0001) ># Note: Some systems use & as the
(PID.TID 0000.0001) ># namelist terminator. Other systems
(PID.TID 0000.0001) ># use a / character (as shown here).
(PID.TID 0000.0001) 
(PID.TID 0000.0001) // =======================================================
(PID.TID 0000.0001) // Computational Grid Specification ( see files "SIZE.h" )
(PID.TID 0000.0001) //                                  ( and "eedata"       )
(PID.TID 0000.0001) // =======================================================
(PID.TID 0000.0001)      nPx =    1 ; /* No. processes in X */
(PID.TID 0000.0001)      nPy =    1 ; /* No. processes in Y */
(PID.TID 0000.0001)      nSx =    2 ; /* No. tiles in X per process */
(PID.TID 0000.0001)      nSy =    2 ; /* No. tiles in Y per process */
(PID.TID 0000.0001)      sNx =   30 ; /* Tile size in X */
(PID.TID 0000.0001)      sNy =   30 ; /* Tile size in Y */
(PID.TID 0000.0001)      OLx =    2 ; /* Tile overlap distance in X */
(PID.TID 0000.0001)      OLy =    2 ; /* Tile overlap distance in Y */
(PID.TID 0000.0001)      nTx =    1 ; /* No. threads in X per process */
(PID.TID 0000.0001)      nTy =    1 ; /* No. threads in Y per process */
(PID.TID 0000.0001)       Nr =    4 ; /* No. levels in the vertical   */
(PID.TID 0000.0001)       Nx =   60 ; /* Total domain size in X ( = nPx*nSx*sNx ) */
(PID.TID 0000.0001)       Ny =   60 ; /* Total domain size in Y ( = nPy*nSy*sNy ) */
(PID.TID 0000.0001)   nTiles =    4 ; /* Total no. tiles per process ( = nSx*nSy ) */
(PID.TID 0000.0001)   nProcs =    1 ; /* Total no. processes ( = nPx*nPy ) */
(PID.TID 0000.0001) nThreads =    1 ; /* Total no. threads per process ( = nTx*nTy ) */
(PID.TID 0000.0001) usingMPI =    F ; /* Flag used to control whether MPI is in use */
(PID.TID 0000.0001)                   /*  note: To execute a program with MPI calls */
(PID.TID 0000.0001)                   /*  it must be launched appropriately e.g     */
(PID.TID 0000.0001)                   /*  "mpirun -np 64 ......"                    */
(PID.TID 0000.0001) useCoupler=    F ;/* Flag used to control communications with   */
(PID.TID 0000.0001)                   /*  other model components, through a coupler */
(PID.TID 0000.0001) printMapIncludesZeros=    F ; /* print zeros in Std.Output maps */
(PID.TID 0000.0001) maxLengthPrt1D=   65 /* maxLength of 1D array printed to StdOut */
(PID.TID 0000.0001) 
(PID.TID 0000.0001) // ======================================================
(PID.TID 0000.0001) // Mapping of tiles to threads
(PID.TID 0000.0001) // ======================================================
(PID.TID 0000.0001) // -o- Thread   1, tiles (   1:   2,   1:   2)
(PID.TID 0000.0001) 
(PID.TID 0000.0001) // ======================================================
(PID.TID 0000.0001) // Tile <-> Tile connectvity table
(PID.TID 0000.0001) // ======================================================
(PID.TID 0000.0001) // Tile number: 000001 (process no. = 000001)
(PID.TID 0000.0001) //        WEST: Tile = 000002, Process = 000001, Comm = put
(PID.TID 0000.0001) //                bi = 000002, bj = 000001
(PID.TID 0000.0001) //        EAST: Tile = 000002, Process = 000001, Comm = put
(PID.TID 0000.0001) //                bi = 000002, bj = 000001
(PID.TID 0000.0001) //       SOUTH: Tile = 000003, Process = 000001, Comm = put
(PID.TID 0000.0001) //                bi = 000001, bj = 000002
(PID.TID 0000.0001) //       NORTH: Tile = 000003, Process = 000001, Comm = put
(PID.TID 0000.0001) //                bi = 000001, bj = 000002
(PID.TID 0000.0001) // Tile number: 000002 (process no. = 000001)
(PID.TID 0000.0001) //        WEST: Tile = 000001, Process = 000001, Comm = put
(PID.TID 0000.0001) //                bi = 000001, bj = 000001
(PID.TID 0000.0001) //        EAST: Tile = 000001, Process = 000001, Comm = put
(PID.TID 0000.0001) //                bi = 000001, bj = 000001
(PID.TID 0000.0001) //       SOUTH: Tile = 000004, Process = 000001, Comm = put
(PID.TID 0000.0001) //                bi = 000002, bj = 000002
(PID.TID 0000.0001) //       NORTH: Tile = 000004, Process = 000001, Comm = put
(PID.TID 0000.0001) //                bi = 000002, bj = 000002
(PID.TID 0000.0001) // Tile number: 000003 (process no. = 000001)
(PID.TID 0000.0001) //        WEST: Tile = 000004, Process = 000001, Comm = put
(PID.TID 0000.0001) //                bi = 000002, bj = 000002
(PID.TID 0000.0001) //        EAST: Tile = 000004, Process = 000001, Comm = put
(PID.TID 0000.0001) //                bi = 000002, bj = 000002
(PID.TID 0000.0001) //       SOUTH: Tile = 000001, Process = 000001, Comm = put
(PID.TID 0000.0001) //                bi = 000001, bj = 000001
(PID.TID 0000.0001) //       NORTH: Tile = 000001, Process = 000001, Comm = put
(PID.TID 0000.0001) //                bi = 000001, bj = 000001
(PID.TID 0000.0001) // Tile number: 000004 (process no. = 000001)
(PID.TID 0000.0001) //        WEST: Tile = 000003, Process = 000001, Comm = put
(PID.TID 0000.0001) //                bi = 000001, bj = 000002
(PID.TID 0000.0001) //        EAST: Tile = 000003, Process = 000001, Comm = put
(PID.TID 0000.0001) //                bi = 000001, bj = 000002
(PID.TID 0000.0001) //       SOUTH: Tile = 000002, Process = 000001, Comm = put
(PID.TID 0000.0001) //                bi = 000002, bj = 000001
(PID.TID 0000.0001) //       NORTH: Tile = 000002, Process = 000001, Comm = put
(PID.TID 0000.0001) //                bi = 000002, bj = 000001
(PID.TID 0000.0001) 
(PID.TID 0000.0001) DEBUG_MSG: ENTERED S/R THE_MODEL_MAIN
(PID.TID 0000.0001) DEBUG_MSG: CALLING S/R INITIALISE_FIXED
(PID.TID 0000.0001) // =======================================================
(PID.TID 0000.0001) // Model parameter file "data"
(PID.TID 0000.0001) // =======================================================
(PID.TID 0000.0001) ># Model parameters
(PID.TID 0000.0001) ># Continuous equation parameters
(PID.TID 0000.0001) > &PARM01
(PID.TID 0000.0001) > tRef=20.,10.,8.,6.,
(PID.TID 0000.0001) > sRef=10.,10.,10.,10.,
(PID.TID 0000.0001) > viscAz=1.E-2,
(PID.TID 0000.0001) > viscAh=4.E2,
(PID.TID 0000.0001) > no_slip_sides=.FALSE.,
(PID.TID 0000.0001) > no_slip_bottom=.TRUE.,
(PID.TID 0000.0001) > diffKhT=4.E2,
(PID.TID 0000.0001) > diffKzT=1.E-2,
(PID.TID 0000.0001) > f0=1.E-04,
(PID.TID 0000.0001) > beta=0.E-11,
(PID.TID 0000.0001) > tAlpha=2.E-4,
(PID.TID 0000.0001) > sBeta =0.,
(PID.TID 0000.0001) > gravity=9.81,
(PID.TID 0000.0001) > rigidLid=.FALSE.,
(PID.TID 0000.0001) > implicitFreeSurface=.TRUE.,
(PID.TID 0000.0001) > eosType='LINEAR',
(PID.TID 0000.0001) > readBinaryPrec=64,
(PID.TID 0000.0001) > &
(PID.TID 0000.0001) ># Elliptic solver parameters
(PID.TID 0000.0001) > &PARM02
(PID.TID 0000.0001) > cg2dMaxIters=1000,
(PID.TID 0000.0001) > cg2dTargetResidual=1.E-13,
(PID.TID 0000.0001) > &
(PID.TID 0000.0001) ># Time stepping parameters
(PID.TID 0000.0001) > &PARM03
(PID.TID 0000.0001) > startTime=0.,
(PID.TID 0000.0001) > endTime=48000.,
(PID.TID 0000.0001) > deltaTmom=1200.0,
(PID.TID 0000.0001) > deltaTtracer=1200.0,
(PID.TID 0000.0001) > abEps=0.1,
(PID.TID 0000.0001) > pChkptFreq=2592000.,
(PID.TID 0000.0001) > chkptFreq=0.0,
(PID.TID 0000.0001) > dumpFreq=2592000.0,
(PID.TID 0000.0001) > monitorSelect=2,
(PID.TID 0000.0001) > monitorFreq=1.,
(PID.TID 0000.0001) > &
(PID.TID 0000.0001) ># Gridding parameters
(PID.TID 0000.0001) > &PARM04
(PID.TID 0000.0001) > usingCartesianGrid=.TRUE.,
(PID.TID 0000.0001) > usingSphericalPolarGrid=.FALSE.,
(PID.TID 0000.0001) > delX=60*100.E03,
(PID.TID 0000.0001) > delY=60*100.E03,
(PID.TID 0000.0001) > delZ=500.,500.,500.,500.,
(PID.TID 0000.0001) > &
(PID.TID 0000.0001) > &PARM05
(PID.TID 0000.0001) > bathyFile='topog.box',
(PID.TID 0000.0001) > hydrogThetaFile=,
(PID.TID 0000.0001) > hydrogSaltFile=,
(PID.TID 0000.0001) > zonalWindFile=,
(PID.TID 0000.0001) > meridWindFile=,
(PID.TID 0000.0001) > pLoadFile='pLoad.bin',
(PID.TID 0000.0001) > &
(PID.TID 0000.0001) 
(PID.TID 0000.0001) S/R INI_PARMS ; starts to read PARM01
(PID.TID 0000.0001) S/R INI_PARMS ; read PARM01 : OK
(PID.TID 0000.0001) S/R INI_PARMS ; starts to read PARM02
(PID.TID 0000.0001) S/R INI_PARMS ; read PARM02 : OK
(PID.TID 0000.0001) S/R INI_PARMS ; starts to read PARM03
(PID.TID 0000.0001) S/R INI_PARMS ; read PARM03 : OK
(PID.TID 0000.0001) S/R INI_PARMS ; starts to read PARM04
(PID.TID 0000.0001) S/R INI_PARMS ; read PARM04 : OK
(PID.TID 0000.0001) S/R INI_PARMS ; starts to read PARM05
(PID.TID 0000.0001) S/R INI_PARMS ; read PARM05 : OK
(PID.TID 0000.0001)  PACKAGES_BOOT: opening data.pkg
(PID.TID 0000.0001)  OPEN_COPY_DATA_FILE: opening file data.pkg
(PID.TID 0000.0001) // =======================================================
(PID.TID 0000.0001) // Parameter file "data.pkg"
(PID.TID 0000.0001) // =======================================================
(PID.TID 0000.0001) ># Packages
(PID.TID 0000.0001) > &PACKAGES
(PID.TID 0000.0001) > useDiagnostics=.TRUE.,
(PID.TID 0000.0001) > useMNC=.TRUE.,
(PID.TID 0000.0001) > &
(PID.TID 0000.0001) 
(PID.TID 0000.0001)  PACKAGES_BOOT: finished reading data.pkg
(PID.TID 0000.0001)  MNC_READPARMS: opening file 'data.mnc'
(PID.TID 0000.0001)  OPEN_COPY_DATA_FILE: opening file data.mnc
(PID.TID 0000.0001) // =======================================================
(PID.TID 0000.0001) // Parameter file "data.mnc"
(PID.TID 0000.0001) // =======================================================
(PID.TID 0000.0001) ># Example "data.mnc" file
(PID.TID 0000.0001) ># Lines beginning "#" are comments
(PID.TID 0000.0001) > &MNC_01
(PID.TID 0000.0001) ># mnc_echo_gvtypes=.FALSE.,
(PID.TID 0000.0001) ># mnc_use_indir=.FALSE.,
(PID.TID 0000.0001) > mnc_use_outdir=.TRUE.,
(PID.TID 0000.0001) > mnc_outdir_str='mnc_test_',
(PID.TID 0000.0001) >#mnc_outdir_date=.TRUE.,
(PID.TID 0000.0001) > monitor_mnc=.FALSE.,
(PID.TID 0000.0001) >#snapshot_mnc=.FALSE.,
(PID.TID 0000.0001) >#timeave_mnc=.FALSE.,
(PID.TID 0000.0001) > pickup_read_mnc=.FALSE.,
(PID.TID 0000.0001) > pickup_write_mnc=.FALSE.,
(PID.TID 0000.0001) > &
(PID.TID 0000.0001) ># Note: Some systems use / as the
(PID.TID 0000.0001) ># namelist terminator. Other systems
(PID.TID 0000.0001) ># use a & character (as shown here).
(PID.TID 0000.0001) 
(PID.TID 0000.0001)  MNC_READPARMS: finished reading data.mnc
(PID.TID 0000.0001)  DIAGNOSTICS_READPARMS: opening data.diagnostics
(PID.TID 0000.0001)  OPEN_COPY_DATA_FILE: opening file data.diagnostics
(PID.TID 0000.0001) // =======================================================
(PID.TID 0000.0001) // Parameter file "data.diagnostics"
(PID.TID 0000.0001) // =======================================================
(PID.TID 0000.0001) ># Diagnostic Package Choices
(PID.TID 0000.0001) >#-----------------
(PID.TID 0000.0001) >#  dumpAtLast (logical): always write output at the end of simulation (default=F)
(PID.TID 0000.0001) >#  diag_mnc   (logical): write to NetCDF files (default=useMNC)
(PID.TID 0000.0001) >#--for each output-stream:
(PID.TID 0000.0001) >#  filename(n) : prefix of the output file name (only 8.c long) for outp.stream n
(PID.TID 0000.0001) >#  frequency(n):< 0 : write snap-shot output every |frequency| seconds
(PID.TID 0000.0001) >#               > 0 : write time-average output every frequency seconds
(PID.TID 0000.0001) >#  timePhase(n)     : write at time = timePhase + multiple of |frequency|
(PID.TID 0000.0001) >#    averagingFreq  : frequency (in s) for periodic averaging interval
(PID.TID 0000.0001) >#    averagingPhase : phase     (in s) for periodic averaging interval
(PID.TID 0000.0001) >#    repeatCycle    : number of averaging intervals in 1 cycle
(PID.TID 0000.0001) >#  levels(:,n) : list of levels to write to file (Notes: declared as REAL)
(PID.TID 0000.0001) >#                when this entry is missing, select all common levels of this list
(PID.TID 0000.0001) >#  fields(:,n) : list of diagnostics fields (8.c) (see "available_diagnostics.log"
(PID.TID 0000.0001) >#                file for the list of all available diag. in this particular config)
(PID.TID 0000.0001) >#  mising_value     : missing value for floats   in output
(PID.TID 0000.0001) >#  mising_value_int : missing value for integers in output
(PID.TID 0000.0001) >#  fileflags (8c string) : specific code for output file
(PID.TID 0000.0001) >#-----------------
(PID.TID 0000.0001) > &DIAGNOSTICS_LIST
(PID.TID 0000.0001) ># diag_mnc     = .FALSE.,
(PID.TID 0000.0001) >  frequency(1) = 43200.,
(PID.TID 0000.0001) ># timePhase(1) = 0.,
(PID.TID 0000.0001) >   filename(1) = 't_Diag',
(PID.TID 0000.0001) >   fields(1,1) = 'THETA   ','THETASQ ',
(PID.TID 0000.0001) > &
(PID.TID 0000.0001) >
(PID.TID 0000.0001) ># Parameter for Diagnostics of per level statistics:
(PID.TID 0000.0001) >#-----------------
(PID.TID 0000.0001) >#  diagSt_mnc (logical): write stat-diags to NetCDF files (default=diag_mnc)
(PID.TID 0000.0001) >#  diagSt_regMaskFile : file containing the region-mask to read-in
(PID.TID 0000.0001) >#  nSetRegMskFile   : number of region-mask sets within the region-mask file
(PID.TID 0000.0001) >#  set_regMask(i)   : region-mask set-index that identifies the region "i"
(PID.TID 0000.0001) >#  val_regMask(i)   : region "i" identificator value in the region mask
(PID.TID 0000.0001) >#--for each output-stream:
(PID.TID 0000.0001) >#  stat_fname(n) : prefix of the output file name (only 8.c long) for outp.stream n
(PID.TID 0000.0001) >#  stat_freq(n):< 0 : write snap-shot output every |stat_freq| seconds
(PID.TID 0000.0001) >#               > 0 : write time-average output every stat_freq seconds
(PID.TID 0000.0001) >#  stat_phase(n)    : write at time = stat_phase + multiple of |stat_freq|
(PID.TID 0000.0001) >#  stat_region(:,n) : list of "regions" (default: 1 region only=global)
(PID.TID 0000.0001) >#  stat_fields(:,n) : list of diagnostics fields (8.c) (see "available_diagnostics.log"
(PID.TID 0000.0001) >#                 file for the list of all available diag. in this particular config)
(PID.TID 0000.0001) >#-----------------
(PID.TID 0000.0001) > &DIAG_STATIS_PARMS
(PID.TID 0000.0001) > diagSt_mnc = .FALSE.,
(PID.TID 0000.0001) > stat_fields(1,1)= 'ETAN    ','momKE   ',
(PID.TID 0000.0001) >#                  'DETADT2 ',
(PID.TID 0000.0001) >                   'THETA   ','THETASQ ',
(PID.TID 0000.0001) >    stat_fname(1)= 'dynStDiag',
(PID.TID 0000.0001) >     stat_freq(1)= -21600.,
(PID.TID 0000.0001) >    stat_phase(1)= 0.,
(PID.TID 0000.0001) > &
(PID.TID 0000.0001) >
(PID.TID 0000.0001) 
(PID.TID 0000.0001) S/R DIAGNOSTICS_READPARMS, read namelist "diagnostics_list": start
(PID.TID 0000.0001) S/R DIAGNOSTICS_READPARMS, read namelist "diagnostics_list": OK
(PID.TID 0000.0001) S/R DIAGNOSTICS_READPARMS, read namelist "DIAG_STATIS_PARMS": start
(PID.TID 0000.0001) S/R DIAGNOSTICS_READPARMS, read namelist "DIAG_STATIS_PARMS": OK
(PID.TID 0000.0001) -----------------------------------------------------
(PID.TID 0000.0001)  DIAGNOSTICS_READPARMS: active diagnostics summary:
(PID.TID 0000.0001) -----------------------------------------------------
(PID.TID 0000.0001) Creating Output Stream: t_Diag
(PID.TID 0000.0001) Output Frequency:      43200.000000 ; Phase:           0.000000
(PID.TID 0000.0001)  Averaging Freq.:      43200.000000 , Phase:           0.000000 , Cycle:   1
(PID.TID 0000.0001)  missing value:  1.234567000000E+05 ; for integers:   123456789
(PID.TID 0000.0001)  Levels:    will be set later
(PID.TID 0000.0001)  Fields:    THETA    THETASQ
(PID.TID 0000.0001) -----------------------------------------------------
(PID.TID 0000.0001)  DIAGNOSTICS_READPARMS: statistics diags. summary:
(PID.TID 0000.0001) Creating Stats. Output Stream: dynStDiag
(PID.TID 0000.0001) Output Frequency:     -21600.000000 ; Phase:           0.000000
(PID.TID 0000.0001)  Regions:   0
(PID.TID 0000.0001)  Fields:    ETAN     momKE    THETA    THETASQ
(PID.TID 0000.0001) -----------------------------------------------------
(PID.TID 0000.0001) 
(PID.TID 0000.0001) SET_PARMS: done
(PID.TID 0000.0001) Enter INI_VERTICAL_GRID: setInterFDr=    T ; setCenterDr=    F
(PID.TID 0000.0001) %MON XC_max                       =   5.9500000000000E+06
(PID.TID 0000.0001) %MON XC_min                       =   5.0000000000000E+04
(PID.TID 0000.0001) %MON XC_mean                      =   3.0000000000000E+06
(PID.TID 0000.0001) %MON XC_sd                        =   1.7318102282487E+06
(PID.TID 0000.0001) %MON XG_max                       =   5.9000000000000E+06
(PID.TID 0000.0001) %MON XG_min                       =   0.0000000000000E+00
(PID.TID 0000.0001) %MON XG_mean                      =   2.9500000000000E+06
(PID.TID 0000.0001) %MON XG_sd                        =   1.7318102282487E+06
(PID.TID 0000.0001) %MON DXC_max                      =   1.0000000000000E+05
(PID.TID 0000.0001) %MON DXC_min                      =   1.0000000000000E+05
(PID.TID 0000.0001) %MON DXC_mean                     =   1.0000000000000E+05
(PID.TID 0000.0001) %MON DXC_sd                       =   0.0000000000000E+00
(PID.TID 0000.0001) %MON DXF_max                      =   1.0000000000000E+05
(PID.TID 0000.0001) %MON DXF_min                      =   1.0000000000000E+05
(PID.TID 0000.0001) %MON DXF_mean                     =   1.0000000000000E+05
(PID.TID 0000.0001) %MON DXF_sd                       =   0.0000000000000E+00
(PID.TID 0000.0001) %MON DXG_max                      =   1.0000000000000E+05
(PID.TID 0000.0001) %MON DXG_min                      =   1.0000000000000E+05
(PID.TID 0000.0001) %MON DXG_mean                     =   1.0000000000000E+05
(PID.TID 0000.0001) %MON DXG_sd                       =   0.0000000000000E+00
(PID.TID 0000.0001) %MON DXV_max                      =   1.0000000000000E+05
(PID.TID 0000.0001) %MON DXV_min                      =   1.0000000000000E+05
(PID.TID 0000.0001) %MON DXV_mean                     =   1.0000000000000E+05
(PID.TID 0000.0001) %MON DXV_sd                       =   0.0000000000000E+00
(PID.TID 0000.0001) %MON YC_max                       =   5.9500000000000E+06
(PID.TID 0000.0001) %MON YC_min                       =   5.0000000000000E+04
(PID.TID 0000.0001) %MON YC_mean                      =   3.0000000000000E+06
(PID.TID 0000.0001) %MON YC_sd                        =   1.7318102282487E+06
(PID.TID 0000.0001) %MON YG_max                       =   5.9000000000000E+06
(PID.TID 0000.0001) %MON YG_min                       =   0.0000000000000E+00
(PID.TID 0000.0001) %MON YG_mean                      =   2.9500000000000E+06
(PID.TID 0000.0001) %MON YG_sd                        =   1.7318102282487E+06
(PID.TID 0000.0001) %MON DYC_max                      =   1.0000000000000E+05
(PID.TID 0000.0001) %MON DYC_min                      =   1.0000000000000E+05
(PID.TID 0000.0001) %MON DYC_mean                     =   1.0000000000000E+05
(PID.TID 0000.0001) %MON DYC_sd                       =   0.0000000000000E+00
(PID.TID 0000.0001) %MON DYF_max                      =   1.0000000000000E+05
(PID.TID 0000.0001) %MON DYF_min                      =   1.0000000000000E+05
(PID.TID 0000.0001) %MON DYF_mean                     =   1.0000000000000E+05
(PID.TID 0000.0001) %MON DYF_sd                       =   0.0000000000000E+00
(PID.TID 0000.0001) %MON DYG_max                      =   1.0000000000000E+05
(PID.TID 0000.0001) %MON DYG_min                      =   1.0000000000000E+05
(PID.TID 0000.0001) %MON DYG_mean                     =   1.0000000000000E+05
(PID.TID 0000.0001) %MON DYG_sd                       =   0.0000000000000E+00
(PID.TID 0000.0001) %MON DYU_max                      =   1.0000000000000E+05
(PID.TID 0000.0001) %MON DYU_min                      =   1.0000000000000E+05
(PID.TID 0000.0001) %MON DYU_mean                     =   1.0000000000000E+05
(PID.TID 0000.0001) %MON DYU_sd                       =   0.0000000000000E+00
(PID.TID 0000.0001) %MON RA_max                       =   1.0000000000000E+10
(PID.TID 0000.0001) %MON RA_min                       =   1.0000000000000E+10
(PID.TID 0000.0001) %MON RA_mean                      =   1.0000000000000E+10
(PID.TID 0000.0001) %MON RA_sd                        =   0.0000000000000E+00
(PID.TID 0000.0001) %MON RAW_max                      =   1.0000000000000E+10
(PID.TID 0000.0001) %MON RAW_min                      =   1.0000000000000E+10
(PID.TID 0000.0001) %MON RAW_mean                     =   1.0000000000000E+10
(PID.TID 0000.0001) %MON RAW_sd                       =   0.0000000000000E+00
(PID.TID 0000.0001) %MON RAS_max                      =   1.0000000000000E+10
(PID.TID 0000.0001) %MON RAS_min                      =   1.0000000000000E+10
(PID.TID 0000.0001) %MON RAS_mean                     =   1.0000000000000E+10
(PID.TID 0000.0001) %MON RAS_sd                       =   0.0000000000000E+00
(PID.TID 0000.0001) %MON RAZ_max                      =   1.0000000000000E+10
(PID.TID 0000.0001) %MON RAZ_min                      =   1.0000000000000E+10
(PID.TID 0000.0001) %MON RAZ_mean                     =   1.0000000000000E+10
(PID.TID 0000.0001) %MON RAZ_sd                       =   0.0000000000000E+00
(PID.TID 0000.0001) %MON AngleCS_max                  =   1.0000000000000E+00
(PID.TID 0000.0001) %MON AngleCS_min                  =   1.0000000000000E+00
(PID.TID 0000.0001) %MON AngleCS_mean                 =   1.0000000000000E+00
(PID.TID 0000.0001) %MON AngleCS_sd                   =   0.0000000000000E+00
(PID.TID 0000.0001) %MON AngleSN_max                  =   0.0000000000000E+00
(PID.TID 0000.0001) %MON AngleSN_min                  =   0.0000000000000E+00
(PID.TID 0000.0001) %MON AngleSN_mean                 =   0.0000000000000E+00
(PID.TID 0000.0001) %MON AngleSN_sd                   =   0.0000000000000E+00
(PID.TID 0000.0001)  MDS_READ_FIELD: opening global file: topog.box
(PID.TID 0000.0001) // =======================================================
(PID.TID 0000.0001) // Field Model R_low (ini_masks_etc) at iteration          1
(PID.TID 0000.0001) // CMIN =         -2.000000000000000E+03
(PID.TID 0000.0001) // CMAX =         -2.000000000000000E+03
(PID.TID 0000.0001) // CINT =          0.000000000000000E+00
(PID.TID 0000.0001) // SYMBOLS (CMIN->CMAX): -abcdefghijklmnopqrstuvwxyz+
(PID.TID 0000.0001) //                  0.0: .
(PID.TID 0000.0001) // RANGE I (Lo:Hi:Step):(  -1:  62:   1)
(PID.TID 0000.0001) // RANGE J (Lo:Hi:Step):(  62:  -1:  -1)
(PID.TID 0000.0001) // RANGE K (Lo:Hi:Step):(   1:   1:   1)
(PID.TID 0000.0001) // =======================================================
(PID.TID 0000.0001) // =======================================================
(PID.TID 0000.0001) // END OF FIELD                                          =
(PID.TID 0000.0001) // =======================================================
(PID.TID 0000.0001) 
(PID.TID 0000.0001) // =======================================================
(PID.TID 0000.0001) // Field Model Ro_surf (ini_masks_etc) at iteration          1
(PID.TID 0000.0001) // CMIN =          1.000000000000000E+32
(PID.TID 0000.0001) // CMAX =         -1.000000000000000E+32
(PID.TID 0000.0001) // CINT =          0.000000000000000E+00
(PID.TID 0000.0001) // SYMBOLS (CMIN->CMAX): -abcdefghijklmnopqrstuvwxyz+
(PID.TID 0000.0001) //                  0.0: .
(PID.TID 0000.0001) // RANGE I (Lo:Hi:Step):(  -1:  62:   1)
(PID.TID 0000.0001) // RANGE J (Lo:Hi:Step):(  62:  -1:  -1)
(PID.TID 0000.0001) // RANGE K (Lo:Hi:Step):(   1:   1:   1)
(PID.TID 0000.0001) // =======================================================
(PID.TID 0000.0001) // =======================================================
(PID.TID 0000.0001) // END OF FIELD                                          =
(PID.TID 0000.0001) // =======================================================
(PID.TID 0000.0001) 
(PID.TID 0000.0001) // =======================================================
(PID.TID 0000.0001) // Field hFacC at iteration          1
(PID.TID 0000.0001) // CMIN =          1.000000000000000E+00
(PID.TID 0000.0001) // CMAX =          1.000000000000000E+00
(PID.TID 0000.0001) // CINT =          0.000000000000000E+00
(PID.TID 0000.0001) // SYMBOLS (CMIN->CMAX): -abcdefghijklmnopqrstuvwxyz+
(PID.TID 0000.0001) //                  0.0: .
(PID.TID 0000.0001) // RANGE I (Lo:Hi:Step):(  -1:  62:   1)
(PID.TID 0000.0001) // RANGE J (Lo:Hi:Step):(  62:  -1:  -1)
(PID.TID 0000.0001) // RANGE K (Lo:Hi:Step):(   1:   1:   1)
(PID.TID 0000.0001) // =======================================================
(PID.TID 0000.0001) // =======================================================
(PID.TID 0000.0001) // END OF FIELD                                          =
(PID.TID 0000.0001) // =======================================================
(PID.TID 0000.0001) 
(PID.TID 0000.0001) // =======================================================
(PID.TID 0000.0001) // Field hFacW at iteration          1
(PID.TID 0000.0001) // CMIN =          1.000000000000000E+00
(PID.TID 0000.0001) // CMAX =          1.000000000000000E+00
(PID.TID 0000.0001) // CINT =          0.000000000000000E+00
(PID.TID 0000.0001) // SYMBOLS (CMIN->CMAX): -abcdefghijklmnopqrstuvwxyz+
(PID.TID 0000.0001) //                  0.0: .
(PID.TID 0000.0001) // RANGE I (Lo:Hi:Step):(  -1:  62:   1)
(PID.TID 0000.0001) // RANGE J (Lo:Hi:Step):(  62:  -1:  -1)
(PID.TID 0000.0001) // RANGE K (Lo:Hi:Step):(   1:   1:   1)
(PID.TID 0000.0001) // =======================================================
(PID.TID 0000.0001) // =======================================================
(PID.TID 0000.0001) // END OF FIELD                                          =
(PID.TID 0000.0001) // =======================================================
(PID.TID 0000.0001) 
(PID.TID 0000.0001) // =======================================================
(PID.TID 0000.0001) // Field hFacS at iteration          1
(PID.TID 0000.0001) // CMIN =          1.000000000000000E+00
(PID.TID 0000.0001) // CMAX =          1.000000000000000E+00
(PID.TID 0000.0001) // CINT =          0.000000000000000E+00
(PID.TID 0000.0001) // SYMBOLS (CMIN->CMAX): -abcdefghijklmnopqrstuvwxyz+
(PID.TID 0000.0001) //                  0.0: .
(PID.TID 0000.0001) // RANGE I (Lo:Hi:Step):(  -1:  62:   1)
(PID.TID 0000.0001) // RANGE J (Lo:Hi:Step):(  62:  -1:  -1)
(PID.TID 0000.0001) // RANGE K (Lo:Hi:Step):(   1:   1:   1)
(PID.TID 0000.0001) // =======================================================
(PID.TID 0000.0001) // =======================================================
(PID.TID 0000.0001) // END OF FIELD                                          =
(PID.TID 0000.0001) // =======================================================
(PID.TID 0000.0001) 
(PID.TID 0000.0001) 
(PID.TID 0000.0001) // ===================================
(PID.TID 0000.0001) // GAD parameters :
(PID.TID 0000.0001) // ===================================
(PID.TID 0000.0001) tempAdvScheme =   /* Temp. Horiz.Advection scheme selector */
(PID.TID 0000.0001)                       2
(PID.TID 0000.0001)     ;
(PID.TID 0000.0001) tempVertAdvScheme =   /* Temp. Vert. Advection scheme selector */
(PID.TID 0000.0001)                       2
(PID.TID 0000.0001)     ;
(PID.TID 0000.0001) tempMultiDimAdvec =   /* use Muti-Dim Advec method for Temp */
(PID.TID 0000.0001)                   F
(PID.TID 0000.0001)     ;
(PID.TID 0000.0001) tempSOM_Advection = /* use 2nd Order Moment Advection for Temp */
(PID.TID 0000.0001)                   F
(PID.TID 0000.0001)     ;
(PID.TID 0000.0001) AdamsBashforthGt = /* apply Adams-Bashforth extrapolation on Gt */
(PID.TID 0000.0001)                   T
(PID.TID 0000.0001)     ;
(PID.TID 0000.0001) AdamsBashforth_T = /* apply Adams-Bashforth extrapolation on Temp */
(PID.TID 0000.0001)                   F
(PID.TID 0000.0001)     ;
(PID.TID 0000.0001) saltAdvScheme =   /* Salt. Horiz.advection scheme selector */
(PID.TID 0000.0001)                       2
(PID.TID 0000.0001)     ;
(PID.TID 0000.0001) saltVertAdvScheme =   /* Salt. Vert. Advection scheme selector */
(PID.TID 0000.0001)                       2
(PID.TID 0000.0001)     ;
(PID.TID 0000.0001) saltMultiDimAdvec =   /* use Muti-Dim Advec method for Salt */
(PID.TID 0000.0001)                   F
(PID.TID 0000.0001)     ;
(PID.TID 0000.0001) saltSOM_Advection = /* use 2nd Order Moment Advection for Salt */
(PID.TID 0000.0001)                   F
(PID.TID 0000.0001)     ;
(PID.TID 0000.0001) AdamsBashforthGs = /* apply Adams-Bashforth extrapolation on Gs */
(PID.TID 0000.0001)                   T
(PID.TID 0000.0001)     ;
(PID.TID 0000.0001) AdamsBashforth_S = /* apply Adams-Bashforth extrapolation on Salt */
(PID.TID 0000.0001)                   F
(PID.TID 0000.0001)     ;
(PID.TID 0000.0001) // ===================================
(PID.TID 0000.0001) ------------------------------------------------------------
(PID.TID 0000.0001) DIAGNOSTICS_SET_LEVELS: done
(PID.TID 0000.0001)  Total Nb of available Diagnostics: ndiagt=   172
(PID.TID 0000.0001)  write list of available Diagnostics to file: available_diagnostics.log
(PID.TID 0000.0001) SETDIAG: Allocate  4 x  1 Levels for Diagnostic #    26 THETA
(PID.TID 0000.0001) SETDIAG: Allocate  4 x  1 Levels for Diagnostic #    33 THETASQ
(PID.TID 0000.0001)   space allocated for all diagnostics:       8 levels
(PID.TID 0000.0001) DIAGNOSTICS_SET_POINTERS: Set levels for Outp.Stream: t_Diag
(PID.TID 0000.0001)  Levels:       1.   2.   3.   4.
(PID.TID 0000.0001) DIAGNOSTICS_SET_POINTERS: done
(PID.TID 0000.0001) ------------------------------------------------------------
(PID.TID 0000.0001) DIAGSTATS_SET_REGIONS: define no region
(PID.TID 0000.0001) ------------------------------------------------------------
(PID.TID 0000.0001) SETDIAG: Allocate  1 Levels for Stats-Diag #    23 ETAN
(PID.TID 0000.0001) SETDIAG: Allocate  4 Levels for Stats-Diag #   136 momKE
(PID.TID 0000.0001) SETDIAG: Allocate  4 Levels for Stats-Diag #    26 THETA
(PID.TID 0000.0001) SETDIAG: Allocate  4 Levels for Stats-Diag #    33 THETASQ
(PID.TID 0000.0001)   space allocated for all stats-diags:      13 levels
(PID.TID 0000.0001) DIAGSTATS_SET_POINTERS: done
(PID.TID 0000.0001) ------------------------------------------------------------
(PID.TID 0000.0001) DIAGSTATS_INI_IO: open file: dynStDiag.0000000000.txt , unit=     9
(PID.TID 0000.0001) %MON fCori_max                    =   1.0000000000000E-04
(PID.TID 0000.0001) %MON fCori_min                    =   1.0000000000000E-04
(PID.TID 0000.0001) %MON fCori_mean                   =   1.0000000000000E-04
(PID.TID 0000.0001) %MON fCori_sd                     =   1.7211709488207E-18
(PID.TID 0000.0001) %MON fCoriG_max                   =   1.0000000000000E-04
(PID.TID 0000.0001) %MON fCoriG_min                   =   1.0000000000000E-04
(PID.TID 0000.0001) %MON fCoriG_mean                  =   1.0000000000000E-04
(PID.TID 0000.0001) %MON fCoriG_sd                    =   1.7211709488207E-18
(PID.TID 0000.0001) %MON fCoriCos_max                 =   0.0000000000000E+00
(PID.TID 0000.0001) %MON fCoriCos_min                 =   0.0000000000000E+00
(PID.TID 0000.0001) %MON fCoriCos_mean                =   0.0000000000000E+00
(PID.TID 0000.0001) %MON fCoriCos_sd                  =   0.0000000000000E+00
(PID.TID 0000.0001) INI_CG2D: CG2D normalisation factor =  4.9999999999999990E-04
(PID.TID 0000.0001) 
(PID.TID 0000.0001) // =======================================================
(PID.TID 0000.0001) // Model configuration
(PID.TID 0000.0001) // =======================================================
(PID.TID 0000.0001) //
(PID.TID 0000.0001) // "Physical" paramters ( PARM01 in namelist )
(PID.TID 0000.0001) //
(PID.TID 0000.0001) buoyancyRelation = /* Type of relation to get Buoyancy */
(PID.TID 0000.0001)               'OCEANIC'
(PID.TID 0000.0001)     ;
(PID.TID 0000.0001) fluidIsAir  =  /* fluid major constituent is Air */
(PID.TID 0000.0001)                   F
(PID.TID 0000.0001)     ;
(PID.TID 0000.0001) fluidIsWater=  /* fluid major constituent is Water */
(PID.TID 0000.0001)                   T
(PID.TID 0000.0001)     ;
(PID.TID 0000.0001) usingPCoords =  /* use p (or p*) vertical coordinate */
(PID.TID 0000.0001)                   F
(PID.TID 0000.0001)     ;
(PID.TID 0000.0001) usingZCoords =  /* use z (or z*) vertical coordinate */
(PID.TID 0000.0001)                   T
(PID.TID 0000.0001)     ;
(PID.TID 0000.0001) tRef =   /* Reference temperature profile ( oC or K ) */
(PID.TID 0000.0001)                 2.000000000000000E+01,      /* K =  1 */
(PID.TID 0000.0001)                 1.000000000000000E+01,      /* K =  2 */
(PID.TID 0000.0001)                 8.000000000000000E+00,      /* K =  3 */
(PID.TID 0000.0001)                 6.000000000000000E+00       /* K =  4 */
(PID.TID 0000.0001)     ;
(PID.TID 0000.0001) sRef =   /* Reference salinity profile ( psu ) */
(PID.TID 0000.0001)     4 @  1.000000000000000E+01              /* K =  1:  4 */
(PID.TID 0000.0001)     ;
(PID.TID 0000.0001) viscAh =   /* Lateral eddy viscosity ( m^2/s ) */
(PID.TID 0000.0001)                 4.000000000000000E+02
(PID.TID 0000.0001)     ;
(PID.TID 0000.0001) viscAhMax =   /* Maximum lateral eddy viscosity ( m^2/s ) */
(PID.TID 0000.0001)                 1.000000000000000E+21
(PID.TID 0000.0001)     ;
(PID.TID 0000.0001) viscAhGrid =   /* Grid dependent lateral eddy viscosity ( non-dim. ) */
(PID.TID 0000.0001)                 0.000000000000000E+00
(PID.TID 0000.0001)     ;
(PID.TID 0000.0001) useFullLeith =   /* Use Full Form of Leith Viscosity on/off flag*/
(PID.TID 0000.0001)                   F
(PID.TID 0000.0001)     ;
(PID.TID 0000.0001) useStrainTensionVisc =   /* Use StrainTension Form of Viscous Operator on/off flag*/
(PID.TID 0000.0001)                   F
(PID.TID 0000.0001)     ;
(PID.TID 0000.0001) useAreaViscLength =   /* Use area for visc length instead of geom. mean*/
(PID.TID 0000.0001)                   F
(PID.TID 0000.0001)     ;
(PID.TID 0000.0001) viscC2leith = /* Leith harmonic visc. factor (on grad(vort),non-dim.) */
(PID.TID 0000.0001)                 0.000000000000000E+00
(PID.TID 0000.0001)     ;
(PID.TID 0000.0001) viscC2leithD = /* Leith harmonic viscosity factor (on grad(div),non-dim.) */
(PID.TID 0000.0001)                 0.000000000000000E+00
(PID.TID 0000.0001)     ;
(PID.TID 0000.0001) viscC2smag =   /* Smagorinsky harmonic viscosity factor (non-dim.) */
(PID.TID 0000.0001)                 0.000000000000000E+00
(PID.TID 0000.0001)     ;
(PID.TID 0000.0001) viscA4 =   /* Lateral biharmonic viscosity ( m^4/s ) */
(PID.TID 0000.0001)                 0.000000000000000E+00
(PID.TID 0000.0001)     ;
(PID.TID 0000.0001) viscA4Max =   /* Maximum biharmonic viscosity ( m^2/s ) */
(PID.TID 0000.0001)                 1.000000000000000E+21
(PID.TID 0000.0001)     ;
(PID.TID 0000.0001) viscA4Grid =   /* Grid dependent biharmonic viscosity ( non-dim. ) */
(PID.TID 0000.0001)                 0.000000000000000E+00
(PID.TID 0000.0001)     ;
(PID.TID 0000.0001) viscC4leith = /* Leith biharm viscosity factor (on grad(vort), non-dim.) */
(PID.TID 0000.0001)                 0.000000000000000E+00
(PID.TID 0000.0001)     ;
(PID.TID 0000.0001) viscC4leithD = /* Leith biharm viscosity factor (on grad(div), non-dim.) */
(PID.TID 0000.0001)                 0.000000000000000E+00
(PID.TID 0000.0001)     ;
(PID.TID 0000.0001) viscC4Smag = /* Smagorinsky biharm viscosity factor (non-dim) */
(PID.TID 0000.0001)                 0.000000000000000E+00
(PID.TID 0000.0001)     ;
(PID.TID 0000.0001) no_slip_sides =  /* Viscous BCs: No-slip sides */
(PID.TID 0000.0001)                   F
(PID.TID 0000.0001)     ;
(PID.TID 0000.0001) sideDragFactor = /* side-drag scaling factor (non-dim) */
(PID.TID 0000.0001)                 2.000000000000000E+00
(PID.TID 0000.0001)     ;
(PID.TID 0000.0001) viscArNr = /* vertical profile of vertical viscosity ( m^2/s )*/
(PID.TID 0000.0001)     4 @  1.000000000000000E-02              /* K =  1:  4 */
(PID.TID 0000.0001)     ;
(PID.TID 0000.0001) no_slip_bottom =  /* Viscous BCs: No-slip bottom */
(PID.TID 0000.0001)                   T
(PID.TID 0000.0001)     ;
(PID.TID 0000.0001) bottomDragLinear = /* linear bottom-drag coefficient ( m/s ) */
(PID.TID 0000.0001)                 0.000000000000000E+00
(PID.TID 0000.0001)     ;
(PID.TID 0000.0001) bottomDragQuadratic = /* quadratic bottom-drag coefficient (-) */
(PID.TID 0000.0001)                 0.000000000000000E+00
(PID.TID 0000.0001)     ;
(PID.TID 0000.0001) diffKhT =   /* Laplacian diffusion of heat laterally ( m^2/s ) */
(PID.TID 0000.0001)                 4.000000000000000E+02
(PID.TID 0000.0001)     ;
(PID.TID 0000.0001) diffK4T =   /* Biharmonic diffusion of heat laterally ( m^4/s ) */
(PID.TID 0000.0001)                 0.000000000000000E+00
(PID.TID 0000.0001)     ;
(PID.TID 0000.0001) diffKhS =   /* Laplacian diffusion of salt laterally ( m^2/s ) */
(PID.TID 0000.0001)                 0.000000000000000E+00
(PID.TID 0000.0001)     ;
(PID.TID 0000.0001) diffK4S =   /* Biharmonic diffusion of salt laterally ( m^4/s ) */
(PID.TID 0000.0001)                 0.000000000000000E+00
(PID.TID 0000.0001)     ;
(PID.TID 0000.0001) diffKrNrT = /* vertical profile of vertical diffusion of Temp ( m^2/s )*/
(PID.TID 0000.0001)     4 @  1.000000000000000E-02              /* K =  1:  4 */
(PID.TID 0000.0001)     ;
(PID.TID 0000.0001) diffKrNrS = /* vertical profile of vertical diffusion of Salt ( m^2/s )*/
(PID.TID 0000.0001)     4 @  0.000000000000000E+00              /* K =  1:  4 */
(PID.TID 0000.0001)     ;
(PID.TID 0000.0001) diffKrBL79surf = /* Surface diffusion for Bryan and Lewis 79 ( m^2/s ) */
(PID.TID 0000.0001)                 0.000000000000000E+00
(PID.TID 0000.0001)     ;
(PID.TID 0000.0001) diffKrBL79deep = /* Deep diffusion for Bryan and Lewis 1979 ( m^2/s ) */
(PID.TID 0000.0001)                 0.000000000000000E+00
(PID.TID 0000.0001)     ;
(PID.TID 0000.0001) diffKrBL79scl = /* Depth scale for Bryan and Lewis 1979 ( m ) */
(PID.TID 0000.0001)                 2.000000000000000E+02
(PID.TID 0000.0001)     ;
(PID.TID 0000.0001) diffKrBL79Ho = /* Turning depth for Bryan and Lewis 1979 ( m ) */
(PID.TID 0000.0001)                -2.000000000000000E+03
(PID.TID 0000.0001)     ;
(PID.TID 0000.0001) ivdc_kappa = /* Implicit Vertical Diffusivity for Convection ( m^2/s ) */
(PID.TID 0000.0001)                 0.000000000000000E+00
(PID.TID 0000.0001)     ;
(PID.TID 0000.0001) hMixCriteria=  /* Criteria for mixed-layer diagnostic */
(PID.TID 0000.0001)                -8.000000000000000E-01
(PID.TID 0000.0001)     ;
(PID.TID 0000.0001) dRhoSmall=  /* Parameter for mixed-layer diagnostic */
(PID.TID 0000.0001)                 1.000000000000000E-06
(PID.TID 0000.0001)     ;
(PID.TID 0000.0001) hMixSmooth=  /* Smoothing parameter for mixed-layer diagnostic */
(PID.TID 0000.0001)                 0.000000000000000E+00
(PID.TID 0000.0001)     ;
(PID.TID 0000.0001) eosType =  /* Type of Equation of State */
(PID.TID 0000.0001)               'LINEAR'
(PID.TID 0000.0001)     ;
(PID.TID 0000.0001) tAlpha =   /* Linear EOS thermal expansion coefficient ( 1/oC ) */
(PID.TID 0000.0001)                 2.000000000000000E-04
(PID.TID 0000.0001)     ;
(PID.TID 0000.0001) sBeta =   /* Linear EOS haline contraction coefficient ( 1/psu ) */
(PID.TID 0000.0001)                 0.000000000000000E+00
(PID.TID 0000.0001)     ;
(PID.TID 0000.0001) rhonil =   /* Reference density ( kg/m^3 ) */
(PID.TID 0000.0001)                 9.998000000000000E+02
(PID.TID 0000.0001)     ;
(PID.TID 0000.0001) rhoConst =   /* Reference density ( kg/m^3 ) */
(PID.TID 0000.0001)                 9.998000000000000E+02
(PID.TID 0000.0001)     ;
(PID.TID 0000.0001) rhoFacC = /* normalized Reference density @ cell-Center (-) */
(PID.TID 0000.0001)     4 @  1.000000000000000E+00              /* K =  1:  4 */
(PID.TID 0000.0001)     ;
(PID.TID 0000.0001) rhoFacF = /* normalized Reference density @ W-Interface (-) */
(PID.TID 0000.0001)     5 @  1.000000000000000E+00              /* K =  1:  5 */
(PID.TID 0000.0001)     ;
(PID.TID 0000.0001) rhoConstFresh =   /* Reference density ( kg/m^3 ) */
(PID.TID 0000.0001)                 9.998000000000000E+02
(PID.TID 0000.0001)     ;
(PID.TID 0000.0001) gravity =   /* Gravitational acceleration ( m/s^2 ) */
(PID.TID 0000.0001)                 9.810000000000000E+00
(PID.TID 0000.0001)     ;
(PID.TID 0000.0001) gBaro =   /* Barotropic gravity ( m/s^2 ) */
(PID.TID 0000.0001)                 9.810000000000000E+00
(PID.TID 0000.0001)     ;
(PID.TID 0000.0001) rotationPeriod =   /* Rotation Period ( s ) */
(PID.TID 0000.0001)                 8.616400000000000E+04
(PID.TID 0000.0001)     ;
(PID.TID 0000.0001) omega =   /* Angular velocity ( rad/s ) */
(PID.TID 0000.0001)                 7.292123516990375E-05
(PID.TID 0000.0001)     ;
(PID.TID 0000.0001) f0 =   /* Reference coriolis parameter ( 1/s ) */
(PID.TID 0000.0001)                 1.000000000000000E-04
(PID.TID 0000.0001)     ;
(PID.TID 0000.0001) beta =   /* Beta ( 1/(m.s) ) */
(PID.TID 0000.0001)                 0.000000000000000E+00
(PID.TID 0000.0001)     ;
(PID.TID 0000.0001) freeSurfFac =   /* Implicit free surface factor */
(PID.TID 0000.0001)                 1.000000000000000E+00
(PID.TID 0000.0001)     ;
(PID.TID 0000.0001) implicitFreeSurface =   /* Implicit free surface on/off flag */
(PID.TID 0000.0001)                   T
(PID.TID 0000.0001)     ;
(PID.TID 0000.0001) rigidLid =   /* Rigid lid on/off flag */
(PID.TID 0000.0001)                   F
(PID.TID 0000.0001)     ;
(PID.TID 0000.0001) implicSurfPress =   /* Surface Pressure implicit factor (0-1)*/
(PID.TID 0000.0001)                 1.000000000000000E+00
(PID.TID 0000.0001)     ;
(PID.TID 0000.0001) implicDiv2Dflow =   /* Barot. Flow Div. implicit factor (0-1)*/
(PID.TID 0000.0001)                 1.000000000000000E+00
(PID.TID 0000.0001)     ;
(PID.TID 0000.0001) exactConserv =   /* Exact Volume Conservation on/off flag*/
(PID.TID 0000.0001)                   F
(PID.TID 0000.0001)     ;
(PID.TID 0000.0001) linFSConserveTr =   /* Tracer correction for Lin Free Surface on/off flag*/
(PID.TID 0000.0001)                   F
(PID.TID 0000.0001)     ;
(PID.TID 0000.0001) uniformLin_PhiSurf =   /* use uniform Bo_surf on/off flag*/
(PID.TID 0000.0001)                   T
(PID.TID 0000.0001)     ;
(PID.TID 0000.0001) nonlinFreeSurf =   /* Non-linear Free Surf. options (-1,0,1,2,3)*/
(PID.TID 0000.0001)                       0
(PID.TID 0000.0001)     ;
(PID.TID 0000.0001)      -1,0= Off ; 1,2,3= On, 2=+rescale gU,gV, 3=+update cg2d solv.
(PID.TID 0000.0001) hFacInf =   /* lower threshold for hFac (nonlinFreeSurf only)*/
(PID.TID 0000.0001)                 2.000000000000000E-01
(PID.TID 0000.0001)     ;
(PID.TID 0000.0001) hFacSup =   /* upper threshold for hFac (nonlinFreeSurf only)*/
(PID.TID 0000.0001)                 2.000000000000000E+00
(PID.TID 0000.0001)     ;
(PID.TID 0000.0001) select_rStar = /* r* Vertical coord. options (=0 r coord.; > 0 uses r*) */
(PID.TID 0000.0001)                       0
(PID.TID 0000.0001)     ;
(PID.TID 0000.0001) selectAddFluid = /* option for mass source/sink of fluid (=0: off) */
(PID.TID 0000.0001)                       0
(PID.TID 0000.0001)     ;
(PID.TID 0000.0001) useRealFreshWaterFlux = /* Real Fresh Water Flux on/off flag*/
(PID.TID 0000.0001)                   F
(PID.TID 0000.0001)     ;
(PID.TID 0000.0001) temp_EvPrRn = /* Temp. of Evap/Prec/R (UNSET=use local T)(oC)*/
(PID.TID 0000.0001)                 1.234567000000000E+05
(PID.TID 0000.0001)     ;
(PID.TID 0000.0001) salt_EvPrRn = /* Salin. of Evap/Prec/R (UNSET=use local S)(ppt)*/
(PID.TID 0000.0001)                 0.000000000000000E+00
(PID.TID 0000.0001)     ;
(PID.TID 0000.0001) convertFW2Salt = /* convert F.W. Flux to Salt Flux (-1=use local S)(ppt)*/
(PID.TID 0000.0001)                 3.500000000000000E+01
(PID.TID 0000.0001)     ;
(PID.TID 0000.0001) use3Dsolver = /* use 3-D pressure solver on/off flag */
(PID.TID 0000.0001)                   F
(PID.TID 0000.0001)     ;
(PID.TID 0000.0001) nonHydrostatic =  /* Non-Hydrostatic on/off flag */
(PID.TID 0000.0001)                   F
(PID.TID 0000.0001)     ;
(PID.TID 0000.0001) nh_Am2 = /* Non-Hydrostatic terms scaling factor */
(PID.TID 0000.0001)                 1.000000000000000E+00
(PID.TID 0000.0001)     ;
(PID.TID 0000.0001) implicitNHPress = /* Non-Hyd Pressure implicit factor (0-1)*/
(PID.TID 0000.0001)                 1.000000000000000E+00
(PID.TID 0000.0001)     ;
(PID.TID 0000.0001) selectNHfreeSurf = /* Non-Hyd (free-)Surface option */
(PID.TID 0000.0001)                       0
(PID.TID 0000.0001)     ;
(PID.TID 0000.0001) quasiHydrostatic = /* Quasi-Hydrostatic on/off flag */
(PID.TID 0000.0001)                   F
(PID.TID 0000.0001)     ;
(PID.TID 0000.0001) momStepping =  /* Momentum equation on/off flag */
(PID.TID 0000.0001)                   T
(PID.TID 0000.0001)     ;
(PID.TID 0000.0001) vectorInvariantMomentum= /* Vector-Invariant Momentum on/off */
(PID.TID 0000.0001)                   F
(PID.TID 0000.0001)     ;
(PID.TID 0000.0001) momAdvection =  /* Momentum advection on/off flag */
(PID.TID 0000.0001)                   T
(PID.TID 0000.0001)     ;
(PID.TID 0000.0001) momViscosity =  /* Momentum viscosity on/off flag */
(PID.TID 0000.0001)                   T
(PID.TID 0000.0001)     ;
(PID.TID 0000.0001) momImplVertAdv =/* Momentum implicit vert. advection on/off*/
(PID.TID 0000.0001)                   F
(PID.TID 0000.0001)     ;
(PID.TID 0000.0001) implicitViscosity = /* Implicit viscosity on/off flag */
(PID.TID 0000.0001)                   F
(PID.TID 0000.0001)     ;
(PID.TID 0000.0001) metricTerms =  /* metric-Terms on/off flag */
(PID.TID 0000.0001)                   F
(PID.TID 0000.0001)     ;
(PID.TID 0000.0001) useNHMTerms = /* Non-Hydrostatic Metric-Terms on/off */
(PID.TID 0000.0001)                   F
(PID.TID 0000.0001)     ;
(PID.TID 0000.0001) useConstantF =  /* use Constant f0 Coriolis flag */
(PID.TID 0000.0001)                   F
(PID.TID 0000.0001)     ;
(PID.TID 0000.0001) useBetaPlaneF = /* use Beta-Plane Coriolis flag */
(PID.TID 0000.0001)                   T
(PID.TID 0000.0001)     ;
(PID.TID 0000.0001) useSphereF  =   /* use Spherical Coriolis flag */
(PID.TID 0000.0001)                   F
(PID.TID 0000.0001)     ;
(PID.TID 0000.0001) use3dCoriolis = /* 3-D Coriolis on/off flag */
(PID.TID 0000.0001)                   F
(PID.TID 0000.0001)     ;
(PID.TID 0000.0001) useCoriolis =  /* Coriolis on/off flag */
(PID.TID 0000.0001)                   T
(PID.TID 0000.0001)     ;
(PID.TID 0000.0001) useCDscheme =  /* CD scheme on/off flag */
(PID.TID 0000.0001)                   F
(PID.TID 0000.0001)     ;
(PID.TID 0000.0001) useJamartWetPoints= /* Coriolis WetPoints method flag */
(PID.TID 0000.0001)                   F
(PID.TID 0000.0001)     ;
(PID.TID 0000.0001) useJamartMomAdv= /* V.I. Non-linear terms Jamart flag */
(PID.TID 0000.0001)                   F
(PID.TID 0000.0001)     ;
(PID.TID 0000.0001) useAbsVorticity= /* Work with f+zeta in Coriolis */
(PID.TID 0000.0001)                   F
(PID.TID 0000.0001)     ;
(PID.TID 0000.0001) selectVortScheme= /* Scheme selector for Vorticity-Term */
(PID.TID 0000.0001)               123456789
(PID.TID 0000.0001)    = 0 : enstrophy (Shallow-Water Eq.) conserving scheme by Sadourny, JAS 75
(PID.TID 0000.0001)    = 1 : same as 0 with modified hFac
(PID.TID 0000.0001)    = 2 : energy conserving scheme (used by Sadourny in JAS 75 paper)
(PID.TID 0000.0001)    = 3 : energy (general) and enstrophy (2D, nonDiv.) conserving scheme
(PID.TID 0000.0001)          from Sadourny (Burridge & Haseler, ECMWF Rep.4, 1977)
(PID.TID 0000.0001)     ;
(PID.TID 0000.0001) upwindVorticity= /* Upwind bias vorticity flag */
(PID.TID 0000.0001)                   F
(PID.TID 0000.0001)     ;
(PID.TID 0000.0001) highOrderVorticity= /* High order interp. of vort. flag */
(PID.TID 0000.0001)                   F
(PID.TID 0000.0001)     ;
(PID.TID 0000.0001) upwindShear= /* Upwind vertical Shear advection flag */
(PID.TID 0000.0001)                   F
(PID.TID 0000.0001)     ;
(PID.TID 0000.0001) selectKEscheme= /* Kinetic Energy scheme selector */
(PID.TID 0000.0001)                       0
(PID.TID 0000.0001)     ;
(PID.TID 0000.0001) momForcing =  /* Momentum forcing on/off flag */
(PID.TID 0000.0001)                   T
(PID.TID 0000.0001)     ;
(PID.TID 0000.0001) momPressureForcing =  /* Momentum pressure term on/off flag */
(PID.TID 0000.0001)                   T
(PID.TID 0000.0001)     ;
(PID.TID 0000.0001) implicitIntGravWave= /* Implicit Internal Gravity Wave flag */
(PID.TID 0000.0001)                   F
(PID.TID 0000.0001)     ;
(PID.TID 0000.0001) staggerTimeStep =   /* Stagger time stepping on/off flag */
(PID.TID 0000.0001)                   F
(PID.TID 0000.0001)     ;
(PID.TID 0000.0001) multiDimAdvection =   /* enable/disable Multi-Dim Advection */
(PID.TID 0000.0001)                   T
(PID.TID 0000.0001)     ;
(PID.TID 0000.0001) useMultiDimAdvec =   /* Multi-Dim Advection is/is-not used */
(PID.TID 0000.0001)                   F
(PID.TID 0000.0001)     ;
(PID.TID 0000.0001) implicitDiffusion =/* Implicit Diffusion on/off flag */
(PID.TID 0000.0001)                   F
(PID.TID 0000.0001)     ;
(PID.TID 0000.0001) tempStepping =  /* Temperature equation on/off flag */
(PID.TID 0000.0001)                   T
(PID.TID 0000.0001)     ;
(PID.TID 0000.0001) tempAdvection=  /* Temperature advection on/off flag */
(PID.TID 0000.0001)                   T
(PID.TID 0000.0001)     ;
(PID.TID 0000.0001) tempImplVertAdv =/* Temp. implicit vert. advection on/off */
(PID.TID 0000.0001)                   F
(PID.TID 0000.0001)     ;
(PID.TID 0000.0001) tempForcing  =  /* Temperature forcing on/off flag */
(PID.TID 0000.0001)                   T
(PID.TID 0000.0001)     ;
(PID.TID 0000.0001) tempIsActiveTr = /* Temp. is a dynamically Active Tracer */
(PID.TID 0000.0001)                   T
(PID.TID 0000.0001)     ;
(PID.TID 0000.0001) saltStepping =  /* Salinity equation on/off flag */
(PID.TID 0000.0001)                   T
(PID.TID 0000.0001)     ;
(PID.TID 0000.0001) saltAdvection=  /* Salinity advection on/off flag */
(PID.TID 0000.0001)                   T
(PID.TID 0000.0001)     ;
(PID.TID 0000.0001) saltImplVertAdv =/* Sali. implicit vert. advection on/off */
(PID.TID 0000.0001)                   F
(PID.TID 0000.0001)     ;
(PID.TID 0000.0001) saltForcing  =  /* Salinity forcing on/off flag */
(PID.TID 0000.0001)                   T
(PID.TID 0000.0001)     ;
(PID.TID 0000.0001) saltIsActiveTr = /* Salt  is a dynamically Active Tracer */
(PID.TID 0000.0001)                   F
(PID.TID 0000.0001)     ;
(PID.TID 0000.0001)  readBinaryPrec = /* Precision used for reading binary files */
(PID.TID 0000.0001)                      64
(PID.TID 0000.0001)     ;
(PID.TID 0000.0001) writeBinaryPrec = /* Precision used for writing binary files */
(PID.TID 0000.0001)                      32
(PID.TID 0000.0001)     ;
(PID.TID 0000.0001)  globalFiles = /* write "global" (=not per tile) files */
(PID.TID 0000.0001)                   F
(PID.TID 0000.0001)     ;
(PID.TID 0000.0001)  useSingleCpuIO = /* only master MPI process does I/O */
(PID.TID 0000.0001)                   F
(PID.TID 0000.0001)     ;
(PID.TID 0000.0001)  debugMode  =  /* Debug Mode on/off flag */
(PID.TID 0000.0001)                   F
(PID.TID 0000.0001)     ;
(PID.TID 0000.0001)    debLevA  =  /* 1rst level of debugging */
(PID.TID 0000.0001)                       1
(PID.TID 0000.0001)     ;
(PID.TID 0000.0001)    debLevB  =  /* 2nd  level of debugging */
(PID.TID 0000.0001)                       2
(PID.TID 0000.0001)     ;
(PID.TID 0000.0001)  debugLevel =  /* select debugging level */
(PID.TID 0000.0001)                       1
(PID.TID 0000.0001)     ;
(PID.TID 0000.0001) //
(PID.TID 0000.0001) // Elliptic solver(s) paramters ( PARM02 in namelist )
(PID.TID 0000.0001) //
(PID.TID 0000.0001) cg2dMaxIters =   /* Upper limit on 2d con. grad iterations  */
(PID.TID 0000.0001)                    1000
(PID.TID 0000.0001)     ;
(PID.TID 0000.0001) cg2dChkResFreq =   /* 2d con. grad convergence test frequency */
(PID.TID 0000.0001)                       1
(PID.TID 0000.0001)     ;
(PID.TID 0000.0001) cg2dTargetResidual =   /* 2d con. grad target residual  */
(PID.TID 0000.0001)                 1.000000000000000E-13
(PID.TID 0000.0001)     ;
(PID.TID 0000.0001) cg2dTargetResWunit =   /* CG2d target residual [W units] */
(PID.TID 0000.0001)                -1.000000000000000E+00
(PID.TID 0000.0001)     ;
(PID.TID 0000.0001) cg2dPreCondFreq =   /* Freq. for updating cg2d preconditioner */
(PID.TID 0000.0001)                       1
(PID.TID 0000.0001)     ;
(PID.TID 0000.0001) useSRCGSolver =  /* use single reduction CG solver(s) */
(PID.TID 0000.0001)                   F
(PID.TID 0000.0001)     ;
(PID.TID 0000.0001) //
(PID.TID 0000.0001) // Time stepping paramters ( PARM03 in namelist )
(PID.TID 0000.0001) //
(PID.TID 0000.0001) deltaTmom =   /* Momentum equation timestep ( s ) */
(PID.TID 0000.0001)                 1.200000000000000E+03
(PID.TID 0000.0001)     ;
(PID.TID 0000.0001) deltaTfreesurf = /* FreeSurface equation timestep ( s ) */
(PID.TID 0000.0001)                 1.200000000000000E+03
(PID.TID 0000.0001)     ;
(PID.TID 0000.0001) dTtracerLev =  /* Tracer equation timestep ( s ) */
(PID.TID 0000.0001)     4 @  1.200000000000000E+03              /* K =  1:  4 */
(PID.TID 0000.0001)     ;
(PID.TID 0000.0001) deltaTClock  =   /* Model clock timestep ( s ) */
(PID.TID 0000.0001)                 1.200000000000000E+03
(PID.TID 0000.0001)     ;
(PID.TID 0000.0001) cAdjFreq =   /* Convective adjustment interval ( s ) */
(PID.TID 0000.0001)                 0.000000000000000E+00
(PID.TID 0000.0001)     ;
(PID.TID 0000.0001) momForcingOutAB = /* =1: take Momentum Forcing out of Adams-Bash. stepping */
(PID.TID 0000.0001)                       0
(PID.TID 0000.0001)     ;
(PID.TID 0000.0001) tracForcingOutAB = /* =1: take T,S,pTr Forcing out of Adams-Bash. stepping */
(PID.TID 0000.0001)                       0
(PID.TID 0000.0001)     ;
(PID.TID 0000.0001) momDissip_In_AB = /* put Dissipation Tendency in Adams-Bash. stepping */
(PID.TID 0000.0001)                   T
(PID.TID 0000.0001)     ;
(PID.TID 0000.0001) doAB_onGtGs = /* apply AB on Tendencies (rather than on T,S)*/
(PID.TID 0000.0001)                   T
(PID.TID 0000.0001)     ;
(PID.TID 0000.0001) abEps =   /* Adams-Bashforth-2 stabilizing weight */
(PID.TID 0000.0001)                 1.000000000000000E-01
(PID.TID 0000.0001)     ;
(PID.TID 0000.0001) pickupStrictlyMatch= /* stop if pickup do not strictly match */
(PID.TID 0000.0001)                   T
(PID.TID 0000.0001)     ;
(PID.TID 0000.0001) nIter0 =   /* Run starting timestep number  */
(PID.TID 0000.0001)                       0
(PID.TID 0000.0001)     ;
(PID.TID 0000.0001) nTimeSteps =   /* Number of timesteps */
(PID.TID 0000.0001)                      40
(PID.TID 0000.0001)     ;
(PID.TID 0000.0001) baseTime =   /* Model base time ( s ). */
(PID.TID 0000.0001)                 0.000000000000000E+00
(PID.TID 0000.0001)     ;
(PID.TID 0000.0001) startTime =   /* Run start time ( s ). */
(PID.TID 0000.0001)                 0.000000000000000E+00
(PID.TID 0000.0001)     ;
(PID.TID 0000.0001) endTime =   /* Integration ending time ( s ). */
(PID.TID 0000.0001)                 4.800000000000000E+04
(PID.TID 0000.0001)     ;
(PID.TID 0000.0001) pChkPtFreq =   /* Permanent restart/checkpoint file interval ( s ). */
(PID.TID 0000.0001)                 2.592000000000000E+06
(PID.TID 0000.0001)     ;
(PID.TID 0000.0001) chkPtFreq =   /* Rolling restart/checkpoint file interval ( s ). */
(PID.TID 0000.0001)                 0.000000000000000E+00
(PID.TID 0000.0001)     ;
(PID.TID 0000.0001) pickup_write_mdsio =   /* Model IO flag. */
(PID.TID 0000.0001)                   T
(PID.TID 0000.0001)     ;
(PID.TID 0000.0001) pickup_read_mdsio =   /* Model IO flag. */
(PID.TID 0000.0001)                   T
(PID.TID 0000.0001)     ;
(PID.TID 0000.0001) pickup_write_mnc =   /* Model IO flag. */
(PID.TID 0000.0001)                   F
(PID.TID 0000.0001)     ;
(PID.TID 0000.0001) pickup_read_mnc =   /* Model IO flag. */
(PID.TID 0000.0001)                   F
(PID.TID 0000.0001)     ;
(PID.TID 0000.0001) pickup_write_immed =   /* Model IO flag. */
(PID.TID 0000.0001)                   F
(PID.TID 0000.0001)     ;
(PID.TID 0000.0001) writePickupAtEnd =   /* Model IO flag. */
(PID.TID 0000.0001)                   T
(PID.TID 0000.0001)     ;
(PID.TID 0000.0001) dumpFreq =   /* Model state write out interval ( s ). */
(PID.TID 0000.0001)                 2.592000000000000E+06
(PID.TID 0000.0001)     ;
(PID.TID 0000.0001) dumpInitAndLast= /* write out Initial & Last iter. model state */
(PID.TID 0000.0001)                   T
(PID.TID 0000.0001)     ;
(PID.TID 0000.0001) snapshot_mdsio =   /* Model IO flag. */
(PID.TID 0000.0001)                   F
(PID.TID 0000.0001)     ;
(PID.TID 0000.0001) snapshot_mnc =   /* Model IO flag. */
(PID.TID 0000.0001)                   T
(PID.TID 0000.0001)     ;
(PID.TID 0000.0001) monitorFreq =   /* Monitor output interval ( s ). */
(PID.TID 0000.0001)                 1.000000000000000E+00
(PID.TID 0000.0001)     ;
(PID.TID 0000.0001) monitorSelect = /* select group of variables to monitor */
(PID.TID 0000.0001)                       2
(PID.TID 0000.0001)     ;
(PID.TID 0000.0001) monitor_stdio =   /* Model IO flag. */
(PID.TID 0000.0001)                   T
(PID.TID 0000.0001)     ;
(PID.TID 0000.0001) monitor_mnc =   /* Model IO flag. */
(PID.TID 0000.0001)                   F
(PID.TID 0000.0001)     ;
(PID.TID 0000.0001) externForcingPeriod =   /* forcing period (s) */
(PID.TID 0000.0001)                 0.000000000000000E+00
(PID.TID 0000.0001)     ;
(PID.TID 0000.0001) externForcingCycle =   /* period of the cyle (s). */
(PID.TID 0000.0001)                 0.000000000000000E+00
(PID.TID 0000.0001)     ;
(PID.TID 0000.0001) tauThetaClimRelax =   /* relaxation time scale (s) */
(PID.TID 0000.0001)                 0.000000000000000E+00
(PID.TID 0000.0001)     ;
(PID.TID 0000.0001) tauSaltClimRelax =   /* relaxation time scale (s) */
(PID.TID 0000.0001)                 0.000000000000000E+00
(PID.TID 0000.0001)     ;
(PID.TID 0000.0001) latBandClimRelax =   /* max. Lat. where relaxation */
(PID.TID 0000.0001)                 1.800000000000000E+07
(PID.TID 0000.0001)     ;
(PID.TID 0000.0001) //
(PID.TID 0000.0001) // Gridding paramters ( PARM04 in namelist )
(PID.TID 0000.0001) //
(PID.TID 0000.0001) usingCartesianGrid = /* Cartesian coordinates flag ( True/False ) */
(PID.TID 0000.0001)                   T
(PID.TID 0000.0001)     ;
(PID.TID 0000.0001) usingCylindricalGrid = /* Cylindrical coordinates flag ( True/False ) */
(PID.TID 0000.0001)                   F
(PID.TID 0000.0001)     ;
(PID.TID 0000.0001) usingSphericalPolarGrid = /* Spherical coordinates flag ( True/False ) */
(PID.TID 0000.0001)                   F
(PID.TID 0000.0001)     ;
(PID.TID 0000.0001) usingCurvilinearGrid = /* Curvilinear coordinates flag ( True/False ) */
(PID.TID 0000.0001)                   F
(PID.TID 0000.0001)     ;
(PID.TID 0000.0001) Ro_SeaLevel = /* r(1) ( units of r ==  m ) */
(PID.TID 0000.0001)                 0.000000000000000E+00
(PID.TID 0000.0001)     ;
(PID.TID 0000.0001) rkSign =   /* index orientation relative to vertical coordinate */
(PID.TID 0000.0001)                -1.000000000000000E+00
(PID.TID 0000.0001)     ;
(PID.TID 0000.0001) gravitySign = /* gravity orientation relative to vertical coordinate */
(PID.TID 0000.0001)                -1.000000000000000E+00
(PID.TID 0000.0001)     ;
(PID.TID 0000.0001) mass2rUnit = /* convert mass per unit area [kg/m2] to r-units [m] */
(PID.TID 0000.0001)                 1.000200040008002E-03
(PID.TID 0000.0001)     ;
(PID.TID 0000.0001) rUnit2mass = /* convert r-units [m] to mass per unit area [kg/m2] */
(PID.TID 0000.0001)                 9.998000000000000E+02
(PID.TID 0000.0001)     ;
(PID.TID 0000.0001) drC =   /* C spacing ( units of r ) */
(PID.TID 0000.0001)                 2.500000000000000E+02,      /* K =  1 */
(PID.TID 0000.0001)     3 @  5.000000000000000E+02              /* K =  2:  4 */
(PID.TID 0000.0001)     ;
(PID.TID 0000.0001) drF =   /* W spacing ( units of r ) */
(PID.TID 0000.0001)     4 @  5.000000000000000E+02              /* K =  1:  4 */
(PID.TID 0000.0001)     ;
(PID.TID 0000.0001) delX = /* U spacing ( m - cartesian, degrees - spherical ) */
(PID.TID 0000.0001)    60 @  1.000000000000000E+05              /* I =  1: 60 */
(PID.TID 0000.0001)     ;
(PID.TID 0000.0001) delY = /* V spacing ( m - cartesian, degrees - spherical ) */
(PID.TID 0000.0001)    60 @  1.000000000000000E+05              /* J =  1: 60 */
(PID.TID 0000.0001)     ;
(PID.TID 0000.0001) xgOrigin = /* X-axis origin of West  edge (cartesian: m, lat-lon: deg.) */
(PID.TID 0000.0001)                 0.000000000000000E+00
(PID.TID 0000.0001)     ;
(PID.TID 0000.0001) ygOrigin = /* Y-axis origin of South edge (cartesian: m, lat-lon: deg.) */
(PID.TID 0000.0001)                 0.000000000000000E+00
(PID.TID 0000.0001)     ;
(PID.TID 0000.0001) rSphere =  /* Radius ( ignored - cartesian, m - spherical ) */
(PID.TID 0000.0001)                 6.370000000000000E+06
(PID.TID 0000.0001)     ;
(PID.TID 0000.0001) deepAtmosphere = /* Deep/Shallow Atmosphere flag (True/False) */
(PID.TID 0000.0001)                   F
(PID.TID 0000.0001)     ;
(PID.TID 0000.0001) xC =  /* xC(:,1,:,1) : P-point X coord ( deg. or m if cartesian) */
(PID.TID 0000.0001)                 5.000000000000000E+04,      /* I =  1 */
(PID.TID 0000.0001)                 1.500000000000000E+05,      /* I =  2 */
(PID.TID 0000.0001)                 2.500000000000000E+05,      /* I =  3 */
(PID.TID 0000.0001)                 3.500000000000000E+05,      /* I =  4 */
(PID.TID 0000.0001)                 4.500000000000000E+05,      /* I =  5 */
(PID.TID 0000.0001)                 5.500000000000000E+05,      /* I =  6 */
(PID.TID 0000.0001)                 6.500000000000000E+05,      /* I =  7 */
(PID.TID 0000.0001)                 7.500000000000000E+05,      /* I =  8 */
(PID.TID 0000.0001)                 8.500000000000000E+05,      /* I =  9 */
(PID.TID 0000.0001)                 9.500000000000000E+05,      /* I = 10 */
(PID.TID 0000.0001)                 1.050000000000000E+06,      /* I = 11 */
(PID.TID 0000.0001)                 1.150000000000000E+06,      /* I = 12 */
(PID.TID 0000.0001)                 1.250000000000000E+06,      /* I = 13 */
(PID.TID 0000.0001)                 1.350000000000000E+06,      /* I = 14 */
(PID.TID 0000.0001)                 1.450000000000000E+06,      /* I = 15 */
(PID.TID 0000.0001)                 1.550000000000000E+06,      /* I = 16 */
(PID.TID 0000.0001)                 1.650000000000000E+06,      /* I = 17 */
(PID.TID 0000.0001)                 1.750000000000000E+06,      /* I = 18 */
(PID.TID 0000.0001)                 1.850000000000000E+06,      /* I = 19 */
(PID.TID 0000.0001)                 1.950000000000000E+06,      /* I = 20 */
(PID.TID 0000.0001)                 2.050000000000000E+06,      /* I = 21 */
(PID.TID 0000.0001)                 2.150000000000000E+06,      /* I = 22 */
(PID.TID 0000.0001)                 2.250000000000000E+06,      /* I = 23 */
(PID.TID 0000.0001)                 2.350000000000000E+06,      /* I = 24 */
(PID.TID 0000.0001)                 2.450000000000000E+06,      /* I = 25 */
(PID.TID 0000.0001)                 2.550000000000000E+06,      /* I = 26 */
(PID.TID 0000.0001)                 2.650000000000000E+06,      /* I = 27 */
(PID.TID 0000.0001)                 2.750000000000000E+06,      /* I = 28 */
(PID.TID 0000.0001)                 2.850000000000000E+06,      /* I = 29 */
(PID.TID 0000.0001)                 2.950000000000000E+06,      /* I = 30 */
(PID.TID 0000.0001)                 3.050000000000000E+06,      /* I = 31 */
(PID.TID 0000.0001)                 3.150000000000000E+06,      /* I = 32 */
(PID.TID 0000.0001)                 3.250000000000000E+06,      /* I = 33 */
(PID.TID 0000.0001)                 3.350000000000000E+06,      /* I = 34 */
(PID.TID 0000.0001)                 3.450000000000000E+06,      /* I = 35 */
(PID.TID 0000.0001)                 3.550000000000000E+06,      /* I = 36 */
(PID.TID 0000.0001)                 3.650000000000000E+06,      /* I = 37 */
(PID.TID 0000.0001)                 3.750000000000000E+06,      /* I = 38 */
(PID.TID 0000.0001)                 3.850000000000000E+06,      /* I = 39 */
(PID.TID 0000.0001)                 3.950000000000000E+06,      /* I = 40 */
(PID.TID 0000.0001)                 4.050000000000000E+06,      /* I = 41 */
(PID.TID 0000.0001)                 4.150000000000000E+06,      /* I = 42 */
(PID.TID 0000.0001)                 4.250000000000000E+06,      /* I = 43 */
(PID.TID 0000.0001)                 4.350000000000000E+06,      /* I = 44 */
(PID.TID 0000.0001)                 4.450000000000000E+06,      /* I = 45 */
(PID.TID 0000.0001)                 4.550000000000000E+06,      /* I = 46 */
(PID.TID 0000.0001)                 4.650000000000000E+06,      /* I = 47 */
(PID.TID 0000.0001)                 4.750000000000000E+06,      /* I = 48 */
(PID.TID 0000.0001)                 4.850000000000000E+06,      /* I = 49 */
(PID.TID 0000.0001)                 4.950000000000000E+06,      /* I = 50 */
(PID.TID 0000.0001)                 5.050000000000000E+06,      /* I = 51 */
(PID.TID 0000.0001)                 5.150000000000000E+06,      /* I = 52 */
(PID.TID 0000.0001)                 5.250000000000000E+06,      /* I = 53 */
(PID.TID 0000.0001)                 5.350000000000000E+06,      /* I = 54 */
(PID.TID 0000.0001)                 5.450000000000000E+06,      /* I = 55 */
(PID.TID 0000.0001)                 5.550000000000000E+06,      /* I = 56 */
(PID.TID 0000.0001)                 5.650000000000000E+06,      /* I = 57 */
(PID.TID 0000.0001)                 5.750000000000000E+06,      /* I = 58 */
(PID.TID 0000.0001)                 5.850000000000000E+06,      /* I = 59 */
(PID.TID 0000.0001)                 5.950000000000000E+06       /* I = 60 */
(PID.TID 0000.0001)     ;
(PID.TID 0000.0001) yC =  /* yC(1,:,1,:) : P-point Y coord ( deg. or m if cartesian) */
(PID.TID 0000.0001)                 5.000000000000000E+04,      /* J =  1 */
(PID.TID 0000.0001)                 1.500000000000000E+05,      /* J =  2 */
(PID.TID 0000.0001)                 2.500000000000000E+05,      /* J =  3 */
(PID.TID 0000.0001)                 3.500000000000000E+05,      /* J =  4 */
(PID.TID 0000.0001)                 4.500000000000000E+05,      /* J =  5 */
(PID.TID 0000.0001)                 5.500000000000000E+05,      /* J =  6 */
(PID.TID 0000.0001)                 6.500000000000000E+05,      /* J =  7 */
(PID.TID 0000.0001)                 7.500000000000000E+05,      /* J =  8 */
(PID.TID 0000.0001)                 8.500000000000000E+05,      /* J =  9 */
(PID.TID 0000.0001)                 9.500000000000000E+05,      /* J = 10 */
(PID.TID 0000.0001)                 1.050000000000000E+06,      /* J = 11 */
(PID.TID 0000.0001)                 1.150000000000000E+06,      /* J = 12 */
(PID.TID 0000.0001)                 1.250000000000000E+06,      /* J = 13 */
(PID.TID 0000.0001)                 1.350000000000000E+06,      /* J = 14 */
(PID.TID 0000.0001)                 1.450000000000000E+06,      /* J = 15 */
(PID.TID 0000.0001)                 1.550000000000000E+06,      /* J = 16 */
(PID.TID 0000.0001)                 1.650000000000000E+06,      /* J = 17 */
(PID.TID 0000.0001)                 1.750000000000000E+06,      /* J = 18 */
(PID.TID 0000.0001)                 1.850000000000000E+06,      /* J = 19 */
(PID.TID 0000.0001)                 1.950000000000000E+06,      /* J = 20 */
(PID.TID 0000.0001)                 2.050000000000000E+06,      /* J = 21 */
(PID.TID 0000.0001)                 2.150000000000000E+06,      /* J = 22 */
(PID.TID 0000.0001)                 2.250000000000000E+06,      /* J = 23 */
(PID.TID 0000.0001)                 2.350000000000000E+06,      /* J = 24 */
(PID.TID 0000.0001)                 2.450000000000000E+06,      /* J = 25 */
(PID.TID 0000.0001)                 2.550000000000000E+06,      /* J = 26 */
(PID.TID 0000.0001)                 2.650000000000000E+06,      /* J = 27 */
(PID.TID 0000.0001)                 2.750000000000000E+06,      /* J = 28 */
(PID.TID 0000.0001)                 2.850000000000000E+06,      /* J = 29 */
(PID.TID 0000.0001)                 2.950000000000000E+06,      /* J = 30 */
(PID.TID 0000.0001)                 3.050000000000000E+06,      /* J = 31 */
(PID.TID 0000.0001)                 3.150000000000000E+06,      /* J = 32 */
(PID.TID 0000.0001)                 3.250000000000000E+06,      /* J = 33 */
(PID.TID 0000.0001)                 3.350000000000000E+06,      /* J = 34 */
(PID.TID 0000.0001)                 3.450000000000000E+06,      /* J = 35 */
(PID.TID 0000.0001)                 3.550000000000000E+06,      /* J = 36 */
(PID.TID 0000.0001)                 3.650000000000000E+06,      /* J = 37 */
(PID.TID 0000.0001)                 3.750000000000000E+06,      /* J = 38 */
(PID.TID 0000.0001)                 3.850000000000000E+06,      /* J = 39 */
(PID.TID 0000.0001)                 3.950000000000000E+06,      /* J = 40 */
(PID.TID 0000.0001)                 4.050000000000000E+06,      /* J = 41 */
(PID.TID 0000.0001)                 4.150000000000000E+06,      /* J = 42 */
(PID.TID 0000.0001)                 4.250000000000000E+06,      /* J = 43 */
(PID.TID 0000.0001)                 4.350000000000000E+06,      /* J = 44 */
(PID.TID 0000.0001)                 4.450000000000000E+06,      /* J = 45 */
(PID.TID 0000.0001)                 4.550000000000000E+06,      /* J = 46 */
(PID.TID 0000.0001)                 4.650000000000000E+06,      /* J = 47 */
(PID.TID 0000.0001)                 4.750000000000000E+06,      /* J = 48 */
(PID.TID 0000.0001)                 4.850000000000000E+06,      /* J = 49 */
(PID.TID 0000.0001)                 4.950000000000000E+06,      /* J = 50 */
(PID.TID 0000.0001)                 5.050000000000000E+06,      /* J = 51 */
(PID.TID 0000.0001)                 5.150000000000000E+06,      /* J = 52 */
(PID.TID 0000.0001)                 5.250000000000000E+06,      /* J = 53 */
(PID.TID 0000.0001)                 5.350000000000000E+06,      /* J = 54 */
(PID.TID 0000.0001)                 5.450000000000000E+06,      /* J = 55 */
(PID.TID 0000.0001)                 5.550000000000000E+06,      /* J = 56 */
(PID.TID 0000.0001)                 5.650000000000000E+06,      /* J = 57 */
(PID.TID 0000.0001)                 5.750000000000000E+06,      /* J = 58 */
(PID.TID 0000.0001)                 5.850000000000000E+06,      /* J = 59 */
(PID.TID 0000.0001)                 5.950000000000000E+06       /* J = 60 */
(PID.TID 0000.0001)     ;
(PID.TID 0000.0001) rcoord = /* P-point R coordinate (  units of r ) */
(PID.TID 0000.0001)                -2.500000000000000E+02,      /* K =  1 */
(PID.TID 0000.0001)                -7.500000000000000E+02,      /* K =  2 */
(PID.TID 0000.0001)                -1.250000000000000E+03,      /* K =  3 */
(PID.TID 0000.0001)                -1.750000000000000E+03       /* K =  4 */
(PID.TID 0000.0001)     ;
(PID.TID 0000.0001) rF =   /* W-Interf. R coordinate (  units of r ) */
(PID.TID 0000.0001)                 0.000000000000000E+00,      /* K =  1 */
(PID.TID 0000.0001)                -5.000000000000000E+02,      /* K =  2 */
(PID.TID 0000.0001)                -1.000000000000000E+03,      /* K =  3 */
(PID.TID 0000.0001)                -1.500000000000000E+03,      /* K =  4 */
(PID.TID 0000.0001)                -2.000000000000000E+03       /* K =  5 */
(PID.TID 0000.0001)     ;
(PID.TID 0000.0001) deepFacC = /* deep-model grid factor @ cell-Center (-) */
(PID.TID 0000.0001)     4 @  1.000000000000000E+00              /* K =  1:  4 */
(PID.TID 0000.0001)     ;
(PID.TID 0000.0001) deepFacF = /* deep-model grid factor @ W-Interface (-) */
(PID.TID 0000.0001)     5 @  1.000000000000000E+00              /* K =  1:  5 */
(PID.TID 0000.0001)     ;
(PID.TID 0000.0001) rVel2wUnit = /* convert units: rVel -> wSpeed (=1 if z-coord)*/
(PID.TID 0000.0001)     5 @  1.000000000000000E+00              /* K =  1:  5 */
(PID.TID 0000.0001)     ;
(PID.TID 0000.0001) wUnit2rVel = /* convert units: wSpeed -> rVel (=1 if z-coord)*/
(PID.TID 0000.0001)     5 @  1.000000000000000E+00              /* K =  1:  5 */
(PID.TID 0000.0001)     ;
(PID.TID 0000.0001) dBdrRef = /* Vertical gradient of reference boyancy [(m/s/r)^2)] */
(PID.TID 0000.0001)                 0.000000000000000E+00,      /* K =  1 */
(PID.TID 0000.0001)                 3.924000000000000E-05,      /* K =  2 */
(PID.TID 0000.0001)     2 @  7.848000000000000E-06              /* K =  3:  4 */
(PID.TID 0000.0001)     ;
(PID.TID 0000.0001) rotateGrid = /* use rotated grid ( True/False ) */
(PID.TID 0000.0001)                   F
(PID.TID 0000.0001)     ;
(PID.TID 0000.0001) phiEuler = /* Euler angle, rotation about original z-coordinate [rad] */
(PID.TID 0000.0001)                 0.000000000000000E+00
(PID.TID 0000.0001)     ;
(PID.TID 0000.0001) thetaEuler = /* Euler angle, rotation about new x-coordinate [rad] */
(PID.TID 0000.0001)                 0.000000000000000E+00
(PID.TID 0000.0001)     ;
(PID.TID 0000.0001) psiEuler = /* Euler angle, rotation about new z-coordinate [rad] */
(PID.TID 0000.0001)                 0.000000000000000E+00
(PID.TID 0000.0001)     ;
(PID.TID 0000.0001) dxF =  /* dxF(:,1,:,1) ( units: m ) */
(PID.TID 0000.0001)    60 @  1.000000000000000E+05              /* I =  1: 60 */
(PID.TID 0000.0001)     ;
(PID.TID 0000.0001) dxF =  /* dxF(1,:,1,:) ( units: m ) */
(PID.TID 0000.0001)    60 @  1.000000000000000E+05              /* J =  1: 60 */
(PID.TID 0000.0001)     ;
(PID.TID 0000.0001) dyF =  /* dyF(:,1,:,1) ( units: m ) */
(PID.TID 0000.0001)    60 @  1.000000000000000E+05              /* I =  1: 60 */
(PID.TID 0000.0001)     ;
(PID.TID 0000.0001) dyF =  /* dyF(1,:,1,:) ( units: m ) */
(PID.TID 0000.0001)    60 @  1.000000000000000E+05              /* J =  1: 60 */
(PID.TID 0000.0001)     ;
(PID.TID 0000.0001) dxG =  /* dxG(:,1,:,1) ( units: m ) */
(PID.TID 0000.0001)    60 @  1.000000000000000E+05              /* I =  1: 60 */
(PID.TID 0000.0001)     ;
(PID.TID 0000.0001) dxG =  /* dxG(1,:,1,:) ( units: m ) */
(PID.TID 0000.0001)    60 @  1.000000000000000E+05              /* J =  1: 60 */
(PID.TID 0000.0001)     ;
(PID.TID 0000.0001) dyG =  /* dyG(:,1,:,1) ( units: m ) */
(PID.TID 0000.0001)    60 @  1.000000000000000E+05              /* I =  1: 60 */
(PID.TID 0000.0001)     ;
(PID.TID 0000.0001) dyG =  /* dyG(1,:,1,:) ( units: m ) */
(PID.TID 0000.0001)    60 @  1.000000000000000E+05              /* J =  1: 60 */
(PID.TID 0000.0001)     ;
(PID.TID 0000.0001) dxC =  /* dxC(:,1,:,1) ( units: m ) */
(PID.TID 0000.0001)    60 @  1.000000000000000E+05              /* I =  1: 60 */
(PID.TID 0000.0001)     ;
(PID.TID 0000.0001) dxC =  /* dxC(1,:,1,:) ( units: m ) */
(PID.TID 0000.0001)    60 @  1.000000000000000E+05              /* J =  1: 60 */
(PID.TID 0000.0001)     ;
(PID.TID 0000.0001) dyC =  /* dyC(:,1,:,1) ( units: m ) */
(PID.TID 0000.0001)    60 @  1.000000000000000E+05              /* I =  1: 60 */
(PID.TID 0000.0001)     ;
(PID.TID 0000.0001) dyC =  /* dyC(1,:,1,:) ( units: m ) */
(PID.TID 0000.0001)    60 @  1.000000000000000E+05              /* J =  1: 60 */
(PID.TID 0000.0001)     ;
(PID.TID 0000.0001) dxV =  /* dxV(:,1,:,1) ( units: m ) */
(PID.TID 0000.0001)    60 @  1.000000000000000E+05              /* I =  1: 60 */
(PID.TID 0000.0001)     ;
(PID.TID 0000.0001) dxV =  /* dxV(1,:,1,:) ( units: m ) */
(PID.TID 0000.0001)    60 @  1.000000000000000E+05              /* J =  1: 60 */
(PID.TID 0000.0001)     ;
(PID.TID 0000.0001) dyU =  /* dyU(:,1,:,1) ( units: m ) */
(PID.TID 0000.0001)    60 @  1.000000000000000E+05              /* I =  1: 60 */
(PID.TID 0000.0001)     ;
(PID.TID 0000.0001) dyU =  /* dyU(1,:,1,:) ( units: m ) */
(PID.TID 0000.0001)    60 @  1.000000000000000E+05              /* J =  1: 60 */
(PID.TID 0000.0001)     ;
(PID.TID 0000.0001) rA  =  /* rA (:,1,:,1) ( units: m^2 ) */
(PID.TID 0000.0001)    60 @  1.000000000000000E+10              /* I =  1: 60 */
(PID.TID 0000.0001)     ;
(PID.TID 0000.0001) rA  =  /* rA (1,:,1,:) ( units: m^2 ) */
(PID.TID 0000.0001)    60 @  1.000000000000000E+10              /* J =  1: 60 */
(PID.TID 0000.0001)     ;
(PID.TID 0000.0001) rAw =  /* rAw(:,1,:,1) ( units: m^2 ) */
(PID.TID 0000.0001)    60 @  1.000000000000000E+10              /* I =  1: 60 */
(PID.TID 0000.0001)     ;
(PID.TID 0000.0001) rAw =  /* rAw(1,:,1,:) ( units: m^2 ) */
(PID.TID 0000.0001)    60 @  1.000000000000000E+10              /* J =  1: 60 */
(PID.TID 0000.0001)     ;
(PID.TID 0000.0001) rAs =  /* rAs(:,1,:,1) ( units: m^2 ) */
(PID.TID 0000.0001)    60 @  1.000000000000000E+10              /* I =  1: 60 */
(PID.TID 0000.0001)     ;
(PID.TID 0000.0001) rAs =  /* rAs(1,:,1,:) ( units: m^2 ) */
(PID.TID 0000.0001)    60 @  1.000000000000000E+10              /* J =  1: 60 */
(PID.TID 0000.0001)     ;
(PID.TID 0000.0001) globalArea = /* Integrated horizontal Area (m^2) */
(PID.TID 0000.0001)                 2.817000000000000E+13
(PID.TID 0000.0001)     ;
(PID.TID 0000.0001) // =======================================================
(PID.TID 0000.0001) // End of Model config. summary
(PID.TID 0000.0001) // =======================================================
(PID.TID 0000.0001) 
(PID.TID 0000.0001) == Packages configuration : Check & print summary ==
(PID.TID 0000.0001) 
(PID.TID 0000.0001) GAD_CHECK: #define ALLOW_GENERIC_ADVDIFF
(PID.TID 0000.0001) // =======================================================
(PID.TID 0000.0001) // CONFIG_CHECK : Normal End
(PID.TID 0000.0001) // =======================================================
(PID.TID 0000.0001) 
(PID.TID 0000.0001) Start initial hydrostatic pressure computation
(PID.TID 0000.0001) Pressure is predetermined for buoyancyRelation OCEANIC
(PID.TID 0000.0001) 
(PID.TID 0000.0001)  MDS_READ_FIELD: opening global file: pLoad.bin
(PID.TID 0000.0001)  write diagnostics summary to file ioUnit:      6
Iter.Nb:         0 ; Time(s):  0.0000000000000E+00
------------------------------------------------------------------------
2D/3D diagnostics: Number of lists:     1
------------------------------------------------------------------------
listId=    1 ; file name: t_Diag
 nFlds, nActive,       freq     &     phase        , nLev               
    2  |    2  |     43200.000000         0.000000 |   4
 levels:   1   2   3   4
 diag# | name   |   ipt  |  iMate | kLev|   count |   mate.C|           
    26 |THETA   |      1 |      0 |   4 |       0 |
    33 |THETASQ |      5 |      0 |   4 |       0 |
------------------------------------------------------------------------
Global & Regional Statistics diagnostics: Number of lists:     1
------------------------------------------------------------------------
listId=   1 ; file name: dynStDiag
 nFlds, nActive,       freq     &     phase        |                    
    4  |    4  |    -21600.000000         0.000000 |
 Regions:   0
 diag# | name   |   ipt  |  iMate |    Volume   |   mate-Vol. |         
    23 |ETAN    |      1 |      0 | 0.00000E+00 |
   136 |momKE   |      2 |      0 | 0.00000E+00 |
    26 |THETA   |      6 |      0 | 0.00000E+00 |
    33 |THETASQ |     10 |      0 | 0.00000E+00 |
------------------------------------------------------------------------
(PID.TID 0000.0001) // =======================================================
(PID.TID 0000.0001) // Model current state
(PID.TID 0000.0001) // =======================================================
(PID.TID 0000.0001) 
(PID.TID 0000.0001) // =======================================================
(PID.TID 0000.0001) // Begin MONITOR dynamic field statistics
(PID.TID 0000.0001) // =======================================================
(PID.TID 0000.0001) %MON time_tsnumber                =                     0
(PID.TID 0000.0001) %MON time_secondsf                =   0.0000000000000E+00
(PID.TID 0000.0001) %MON dynstat_eta_max              =   0.0000000000000E+00
(PID.TID 0000.0001) %MON dynstat_eta_min              =   0.0000000000000E+00
(PID.TID 0000.0001) %MON dynstat_eta_mean             =   0.0000000000000E+00
(PID.TID 0000.0001) %MON dynstat_eta_sd               =   0.0000000000000E+00
(PID.TID 0000.0001) %MON dynstat_eta_del2             =   0.0000000000000E+00
(PID.TID 0000.0001) %MON dynstat_uvel_max             =   0.0000000000000E+00
(PID.TID 0000.0001) %MON dynstat_uvel_min             =   0.0000000000000E+00
(PID.TID 0000.0001) %MON dynstat_uvel_mean            =   0.0000000000000E+00
(PID.TID 0000.0001) %MON dynstat_uvel_sd              =   0.0000000000000E+00
(PID.TID 0000.0001) %MON dynstat_uvel_del2            =   0.0000000000000E+00
(PID.TID 0000.0001) %MON dynstat_vvel_max             =   0.0000000000000E+00
(PID.TID 0000.0001) %MON dynstat_vvel_min             =   0.0000000000000E+00
(PID.TID 0000.0001) %MON dynstat_vvel_mean            =   0.0000000000000E+00
(PID.TID 0000.0001) %MON dynstat_vvel_sd              =   0.0000000000000E+00
(PID.TID 0000.0001) %MON dynstat_vvel_del2            =   0.0000000000000E+00
(PID.TID 0000.0001) %MON dynstat_wvel_max             =   0.0000000000000E+00
(PID.TID 0000.0001) %MON dynstat_wvel_min             =   0.0000000000000E+00
(PID.TID 0000.0001) %MON dynstat_wvel_mean            =   0.0000000000000E+00
(PID.TID 0000.0001) %MON dynstat_wvel_sd              =   0.0000000000000E+00
(PID.TID 0000.0001) %MON dynstat_wvel_del2            =   0.0000000000000E+00
(PID.TID 0000.0001) %MON dynstat_theta_max            =   2.0000000000000E+01
(PID.TID 0000.0001) %MON dynstat_theta_min            =   6.0000000000000E+00
(PID.TID 0000.0001) %MON dynstat_theta_mean           =   1.1000000000000E+01
(PID.TID 0000.0001) %MON dynstat_theta_sd             =   5.3851648071345E+00
(PID.TID 0000.0001) %MON dynstat_theta_del2           =   0.0000000000000E+00
(PID.TID 0000.0001) %MON dynstat_salt_max             =   1.0000000000000E+01
(PID.TID 0000.0001) %MON dynstat_salt_min             =   1.0000000000000E+01
(PID.TID 0000.0001) %MON dynstat_salt_mean            =   1.0000000000000E+01
(PID.TID 0000.0001) %MON dynstat_salt_sd              =   0.0000000000000E+00
(PID.TID 0000.0001) %MON dynstat_salt_del2            =   0.0000000000000E+00
(PID.TID 0000.0001) %MON advcfl_uvel_max              =   0.0000000000000E+00
(PID.TID 0000.0001) %MON advcfl_vvel_max              =   0.0000000000000E+00
(PID.TID 0000.0001) %MON advcfl_wvel_max              =   0.0000000000000E+00
(PID.TID 0000.0001) %MON advcfl_W_hf_max              =   0.0000000000000E+00
(PID.TID 0000.0001) %MON pe_b_mean                    =   0.0000000000000E+00
(PID.TID 0000.0001) %MON ke_max                       =   0.0000000000000E+00
(PID.TID 0000.0001) %MON ke_mean                      =   0.0000000000000E+00
(PID.TID 0000.0001) %MON ke_vol                       =   5.6340000000000E+16
(PID.TID 0000.0001) %MON vort_r_min                   =   0.0000000000000E+00
(PID.TID 0000.0001) %MON vort_r_max                   =   0.0000000000000E+00
(PID.TID 0000.0001) %MON vort_a_mean                  =   1.0000000000000E-04
(PID.TID 0000.0001) %MON vort_a_sd                    =   0.0000000000000E+00
(PID.TID 0000.0001) %MON vort_p_mean                  =   1.0398839738941E-04
(PID.TID 0000.0001) %MON vort_p_sd                    =   3.0798696260398E-05
(PID.TID 0000.0001) %MON surfExpan_theta_mean         =   0.0000000000000E+00
(PID.TID 0000.0001) %MON surfExpan_salt_mean          =   0.0000000000000E+00
(PID.TID 0000.0001) // =======================================================
(PID.TID 0000.0001) // End MONITOR dynamic field statistics
(PID.TID 0000.0001) // =======================================================
(PID.TID 0000.0001) SOLVE_FOR_PRESSURE: putPmEinXvector =    F
 cg2d: Sum(rhs),rhsMax =   5.77315972805081E-14  4.24921128799584E-01
(PID.TID 0000.0001)                    cg2d_init_res =    1.43440091582323E+01
(PID.TID 0000.0001)                       cg2d_iters =    35
(PID.TID 0000.0001)                         cg2d_res =    8.75044355663868E-14
(PID.TID 0000.0001) // =======================================================
(PID.TID 0000.0001) // Begin MONITOR dynamic field statistics
(PID.TID 0000.0001) // =======================================================
(PID.TID 0000.0001) %MON time_tsnumber                =                     1
(PID.TID 0000.0001) %MON time_secondsf                =   1.2000000000000E+03
(PID.TID 0000.0001) %MON dynstat_eta_max              =   6.3479378056005E-02
(PID.TID 0000.0001) %MON dynstat_eta_min              =  -6.3479378056005E-02
(PID.TID 0000.0001) %MON dynstat_eta_mean             =  -6.9333510827121E-19
(PID.TID 0000.0001) %MON dynstat_eta_sd               =   2.6630509477227E-02
(PID.TID 0000.0001) %MON dynstat_eta_del2             =   3.0523818710692E-05
(PID.TID 0000.0001) %MON dynstat_uvel_max             =   7.6757222457609E-03
(PID.TID 0000.0001) %MON dynstat_uvel_min             =  -7.6757222457609E-03
(PID.TID 0000.0001) %MON dynstat_uvel_mean            =   3.5408357505439E-20
(PID.TID 0000.0001) %MON dynstat_uvel_sd              =   3.4801396250131E-03
(PID.TID 0000.0001) %MON dynstat_uvel_del2            =   1.9198426763159E-06
(PID.TID 0000.0001) %MON dynstat_vvel_max             =   7.6757222457609E-03
(PID.TID 0000.0001) %MON dynstat_vvel_min             =  -7.6757222457609E-03
(PID.TID 0000.0001) %MON dynstat_vvel_mean            =  -6.5505461385062E-19
(PID.TID 0000.0001) %MON dynstat_vvel_sd              =   3.4801396250131E-03
(PID.TID 0000.0001) %MON dynstat_vvel_del2            =   1.9198426763159E-06
(PID.TID 0000.0001) %MON dynstat_wvel_max             =   5.2899481713338E-05
(PID.TID 0000.0001) %MON dynstat_wvel_min             =  -5.2899481713338E-05
(PID.TID 0000.0001) %MON dynstat_wvel_mean            =  -6.7330669018298E-22
(PID.TID 0000.0001) %MON dynstat_wvel_sd              =   1.3909629302427E-05
(PID.TID 0000.0001) %MON dynstat_wvel_del2            =   8.7075958588774E-09
(PID.TID 0000.0001) %MON dynstat_theta_max            =   1.9999520000000E+01
(PID.TID 0000.0001) %MON dynstat_theta_min            =   6.0000960000000E+00
(PID.TID 0000.0001) %MON dynstat_theta_mean           =   1.1000000000000E+01
(PID.TID 0000.0001) %MON dynstat_theta_sd             =   5.3849241495835E+00
(PID.TID 0000.0001) %MON dynstat_theta_del2           =   0.0000000000000E+00
(PID.TID 0000.0001) %MON dynstat_salt_max             =   1.0000000000000E+01
(PID.TID 0000.0001) %MON dynstat_salt_min             =   1.0000000000000E+01
(PID.TID 0000.0001) %MON dynstat_salt_mean            =   1.0000000000000E+01
(PID.TID 0000.0001) %MON dynstat_salt_sd              =   0.0000000000000E+00
(PID.TID 0000.0001) %MON dynstat_salt_del2            =   0.0000000000000E+00
(PID.TID 0000.0001) %MON advcfl_uvel_max              =   9.2108666949131E-05
(PID.TID 0000.0001) %MON advcfl_vvel_max              =   9.2108666949131E-05
(PID.TID 0000.0001) %MON advcfl_wvel_max              =   2.5391751222402E-04
(PID.TID 0000.0001) %MON advcfl_W_hf_max              =   9.5219067084009E-05
(PID.TID 0000.0001) %MON pe_b_mean                    =  -2.5454689856414E-05
(PID.TID 0000.0001) %MON ke_max                       =   3.1921183426987E-05
(PID.TID 0000.0001) %MON ke_mean                      =   1.1857708005268E-05
(PID.TID 0000.0001) %MON ke_vol                       =   5.6340000000000E+16
(PID.TID 0000.0001) %MON vort_r_min                   =  -3.0468644005544E-08
(PID.TID 0000.0001) %MON vort_r_max                   =   3.0468644005544E-08
(PID.TID 0000.0001) %MON vort_a_mean                  =   1.0000000000000E-04
(PID.TID 0000.0001) %MON vort_a_sd                    =   4.1140218495264E-09
(PID.TID 0000.0001) %MON vort_p_mean                  =   1.0398839738941E-04
(PID.TID 0000.0001) %MON vort_p_sd                    =   3.0798696841317E-05
(PID.TID 0000.0001) %MON surfExpan_theta_mean         =   3.4383226041892E-21
(PID.TID 0000.0001) %MON surfExpan_salt_mean          =  -3.7358697526287E-21
(PID.TID 0000.0001) // =======================================================
(PID.TID 0000.0001) // End MONITOR dynamic field statistics
(PID.TID 0000.0001) // =======================================================
 Compute Stats, Diag. #     23  ETAN      vol(   0 ): 2.817E+13  Parms: SM      M1      
 Compute Stats, Diag. #    136  momKE     vol(   0 ): 5.634E+16  Parms: SMR     MR      
 Compute Stats, Diag. #     26  THETA     vol(   0 ): 5.634E+16  Parms: SMR     MR      
 Compute Stats, Diag. #     33  THETASQ   vol(   0 ): 5.634E+16  Parms: SMRP    MR      
 cg2d: Sum(rhs),rhsMax =  -8.55981951985996E-14  8.65744524638393E-01
(PID.TID 0000.0001)                    cg2d_init_res =    1.13411031216681E+01
(PID.TID 0000.0001)                       cg2d_iters =    36
(PID.TID 0000.0001)                         cg2d_res =    3.85432175759195E-14
(PID.TID 0000.0001) // =======================================================
(PID.TID 0000.0001) // Begin MONITOR dynamic field statistics
(PID.TID 0000.0001) // =======================================================
(PID.TID 0000.0001) %MON time_tsnumber                =                     2
(PID.TID 0000.0001) %MON time_secondsf                =   2.4000000000000E+03
(PID.TID 0000.0001) %MON dynstat_eta_max              =   1.5119309361459E-01
(PID.TID 0000.0001) %MON dynstat_eta_min              =  -1.5119151821565E-01
(PID.TID 0000.0001) %MON dynstat_eta_mean             =  -1.7160043929712E-18
(PID.TID 0000.0001) %MON dynstat_eta_sd               =   7.2547081403664E-02
(PID.TID 0000.0001) %MON dynstat_eta_del2             =   5.3738470624787E-05
(PID.TID 0000.0001) %MON dynstat_uvel_max             =   1.3395140564885E-02
(PID.TID 0000.0001) %MON dynstat_uvel_min             =  -1.3395140564885E-02
(PID.TID 0000.0001) %MON dynstat_uvel_mean            =   4.2490029006526E-19
(PID.TID 0000.0001) %MON dynstat_uvel_sd              =   6.1216015273029E-03
(PID.TID 0000.0001) %MON dynstat_uvel_del2            =   3.3588523170985E-06
(PID.TID 0000.0001) %MON dynstat_vvel_max             =   1.3395113542603E-02
(PID.TID 0000.0001) %MON dynstat_vvel_min             =  -1.3395113542603E-02
(PID.TID 0000.0001) %MON dynstat_vvel_mean            =   0.0000000000000E+00
(PID.TID 0000.0001) %MON dynstat_vvel_sd              =   6.1215983933900E-03
(PID.TID 0000.0001) %MON dynstat_vvel_del2            =   3.3588372191184E-06
(PID.TID 0000.0001) %MON dynstat_wvel_max             =   8.0653436283743E-05
(PID.TID 0000.0001) %MON dynstat_wvel_min             =  -8.0652123451292E-05
(PID.TID 0000.0001) %MON dynstat_wvel_mean            =   1.1123540381025E-22
(PID.TID 0000.0001) %MON dynstat_wvel_sd              =   2.4017893785266E-05
(PID.TID 0000.0001) %MON dynstat_wvel_del2            =   1.0181243618703E-08
(PID.TID 0000.0001) %MON dynstat_theta_max            =   1.9999801753076E+01
(PID.TID 0000.0001) %MON dynstat_theta_min            =   6.0001412115624E+00
(PID.TID 0000.0001) %MON dynstat_theta_mean           =   1.1000000000000E+01
(PID.TID 0000.0001) %MON dynstat_theta_sd             =   5.3846835335153E+00
(PID.TID 0000.0001) %MON dynstat_theta_del2           =   1.3973536631366E-07
(PID.TID 0000.0001) %MON dynstat_salt_max             =   1.0000000000000E+01
(PID.TID 0000.0001) %MON dynstat_salt_min             =   1.0000000000000E+01
(PID.TID 0000.0001) %MON dynstat_salt_mean            =   1.0000000000000E+01
(PID.TID 0000.0001) %MON dynstat_salt_sd              =   0.0000000000000E+00
(PID.TID 0000.0001) %MON dynstat_salt_del2            =   0.0000000000000E+00
(PID.TID 0000.0001) %MON advcfl_uvel_max              =   1.6074168677862E-04
(PID.TID 0000.0001) %MON advcfl_vvel_max              =   1.6074136251123E-04
(PID.TID 0000.0001) %MON advcfl_wvel_max              =   3.8713649416196E-04
(PID.TID 0000.0001) %MON advcfl_W_hf_max              =   1.4517514065851E-04
(PID.TID 0000.0001) %MON pe_b_mean                    =  -6.1716083455938E-05
(PID.TID 0000.0001) %MON ke_max                       =   1.0232837167515E-04
(PID.TID 0000.0001) %MON ke_mean                      =   3.6689120906466E-05
(PID.TID 0000.0001) %MON ke_vol                       =   5.6340000000000E+16
(PID.TID 0000.0001) %MON vort_r_min                   =  -5.3553840733701E-08
(PID.TID 0000.0001) %MON vort_r_max                   =   5.3553955433028E-08
(PID.TID 0000.0001) %MON vort_a_mean                  =   1.0000000000000E-04
(PID.TID 0000.0001) %MON vort_a_sd                    =   6.8687084765359E-09
(PID.TID 0000.0001) %MON vort_p_mean                  =   1.0398839738941E-04
(PID.TID 0000.0001) %MON vort_p_sd                    =   3.0798697821171E-05
(PID.TID 0000.0001) %MON surfExpan_theta_mean         =  -1.2195951930060E-08
(PID.TID 0000.0001) %MON surfExpan_salt_mean          =  -8.2784228854709E-20
(PID.TID 0000.0001) // =======================================================
(PID.TID 0000.0001) // End MONITOR dynamic field statistics
(PID.TID 0000.0001) // =======================================================
 cg2d: Sum(rhs),rhsMax =   2.53130849614536E-14  1.24139291430714E+00
(PID.TID 0000.0001)                    cg2d_init_res =    9.57941962986847E+00
(PID.TID 0000.0001)                       cg2d_iters =    35
(PID.TID 0000.0001)                         cg2d_res =    5.98906635976003E-14
(PID.TID 0000.0001) // =======================================================
(PID.TID 0000.0001) // Begin MONITOR dynamic field statistics
(PID.TID 0000.0001) // =======================================================
(PID.TID 0000.0001) %MON time_tsnumber                =                     3
(PID.TID 0000.0001) %MON time_secondsf                =   3.6000000000000E+03
(PID.TID 0000.0001) %MON dynstat_eta_max              =   2.7302464671160E-01
(PID.TID 0000.0001) %MON dynstat_eta_min              =  -2.7301824102663E-01
(PID.TID 0000.0001) %MON dynstat_eta_mean             =   9.4986909833156E-18
(PID.TID 0000.0001) %MON dynstat_eta_sd               =   1.2868286912338E-01
(PID.TID 0000.0001) %MON dynstat_eta_del2             =   9.4268028151857E-05
(PID.TID 0000.0001) %MON dynstat_uvel_max             =   1.6490553040383E-02
(PID.TID 0000.0001) %MON dynstat_uvel_min             =  -1.6490553040383E-02
(PID.TID 0000.0001) %MON dynstat_uvel_mean            =   1.0976590826686E-18
(PID.TID 0000.0001) %MON dynstat_uvel_sd              =   7.6702060718369E-03
(PID.TID 0000.0001) %MON dynstat_uvel_del2            =   4.0219893839110E-06
(PID.TID 0000.0001) %MON dynstat_vvel_max             =   1.6490517858712E-02
(PID.TID 0000.0001) %MON dynstat_vvel_min             =  -1.6490517858712E-02
(PID.TID 0000.0001) %MON dynstat_vvel_mean            =  -1.4871510152284E-18
(PID.TID 0000.0001) %MON dynstat_vvel_sd              =   7.6701952652520E-03
(PID.TID 0000.0001) %MON dynstat_vvel_del2            =   4.0219391506096E-06
(PID.TID 0000.0001) %MON dynstat_wvel_max             =   1.0152629424751E-04
(PID.TID 0000.0001) %MON dynstat_wvel_min             =  -1.0152226900915E-04
(PID.TID 0000.0001) %MON dynstat_wvel_mean            =  -7.7381150476698E-22
(PID.TID 0000.0001) %MON dynstat_wvel_sd              =   2.9394541632096E-05
(PID.TID 0000.0001) %MON dynstat_wvel_del2            =   1.4032394054003E-08
(PID.TID 0000.0001) %MON dynstat_theta_max            =   2.0000129382534E+01
(PID.TID 0000.0001) %MON dynstat_theta_min            =   6.0001833594745E+00
(PID.TID 0000.0001) %MON dynstat_theta_mean           =   1.1000000011708E+01
(PID.TID 0000.0001) %MON dynstat_theta_sd             =   5.3844429626401E+00
(PID.TID 0000.0001) %MON dynstat_theta_del2           =   2.0797407248373E-07
(PID.TID 0000.0001) %MON dynstat_salt_max             =   1.0000000000000E+01
(PID.TID 0000.0001) %MON dynstat_salt_min             =   1.0000000000000E+01
(PID.TID 0000.0001) %MON dynstat_salt_mean            =   1.0000000000000E+01
(PID.TID 0000.0001) %MON dynstat_salt_sd              =   0.0000000000000E+00
(PID.TID 0000.0001) %MON dynstat_salt_del2            =   0.0000000000000E+00
(PID.TID 0000.0001) %MON advcfl_uvel_max              =   1.9788663648459E-04
(PID.TID 0000.0001) %MON advcfl_vvel_max              =   1.9788621430454E-04
(PID.TID 0000.0001) %MON advcfl_wvel_max              =   4.8732621238805E-04
(PID.TID 0000.0001) %MON advcfl_W_hf_max              =   1.8273727916460E-04
(PID.TID 0000.0001) %MON pe_b_mean                    =  -9.2322390014721E-05
(PID.TID 0000.0001) %MON ke_max                       =   1.6788197624708E-04
(PID.TID 0000.0001) %MON ke_mean                      =   5.7599785637107E-05
(PID.TID 0000.0001) %MON ke_vol                       =   5.6340000000000E+16
(PID.TID 0000.0001) %MON vort_r_min                   =  -6.3218590291231E-08
(PID.TID 0000.0001) %MON vort_r_max                   =   6.3218803771457E-08
(PID.TID 0000.0001) %MON vort_a_mean                  =   1.0000000000000E-04
(PID.TID 0000.0001) %MON vort_a_sd                    =   8.6655422852841E-09
(PID.TID 0000.0001) %MON vort_p_mean                  =   1.0398839738941E-04
(PID.TID 0000.0001) %MON vort_p_sd                    =   3.0798698525767E-05
(PID.TID 0000.0001) %MON surfExpan_theta_mean         =  -3.5081292570893E-08
(PID.TID 0000.0001) %MON surfExpan_salt_mean          =   2.9093498958524E-21
(PID.TID 0000.0001) // =======================================================
(PID.TID 0000.0001) // End MONITOR dynamic field statistics
(PID.TID 0000.0001) // =======================================================
 cg2d: Sum(rhs),rhsMax =   1.11022302462516E-14  1.56919853143729E+00
(PID.TID 0000.0001)                    cg2d_init_res =    7.72675850262153E+00
(PID.TID 0000.0001)                       cg2d_iters =    35
(PID.TID 0000.0001)                         cg2d_res =    4.62308356622270E-14
(PID.TID 0000.0001) // =======================================================
(PID.TID 0000.0001) // Begin MONITOR dynamic field statistics
(PID.TID 0000.0001) // =======================================================
(PID.TID 0000.0001) %MON time_tsnumber                =                     4
(PID.TID 0000.0001) %MON time_secondsf                =   4.8000000000000E+03
(PID.TID 0000.0001) %MON dynstat_eta_max              =   4.0135513336093E-01
(PID.TID 0000.0001) %MON dynstat_eta_min              =  -4.0134240861131E-01
(PID.TID 0000.0001) %MON dynstat_eta_mean             =   1.9968051118211E-17
(PID.TID 0000.0001) %MON dynstat_eta_sd               =   1.8602139126753E-01
(PID.TID 0000.0001) %MON dynstat_eta_del2             =   1.4132942037135E-04
(PID.TID 0000.0001) %MON dynstat_uvel_max             =   1.7833109684602E-02
(PID.TID 0000.0001) %MON dynstat_uvel_min             =  -1.7833109684602E-02
(PID.TID 0000.0001) %MON dynstat_uvel_mean            =   7.7898386511965E-19
(PID.TID 0000.0001) %MON dynstat_uvel_sd              =   8.1482333777971E-03
(PID.TID 0000.0001) %MON dynstat_uvel_del2            =   4.0466942750585E-06
(PID.TID 0000.0001) %MON dynstat_vvel_max             =   1.7833183305072E-02
(PID.TID 0000.0001) %MON dynstat_vvel_min             =  -1.7833183305072E-02
(PID.TID 0000.0001) %MON dynstat_vvel_mean            =   2.1245014503263E-19
(PID.TID 0000.0001) %MON dynstat_vvel_sd              =   8.1482140148335E-03
(PID.TID 0000.0001) %MON dynstat_vvel_del2            =   4.0466103411209E-06
(PID.TID 0000.0001) %MON dynstat_wvel_max             =   1.0704254735471E-04
(PID.TID 0000.0001) %MON dynstat_wvel_min             =  -1.0703725722703E-04
(PID.TID 0000.0001) %MON dynstat_wvel_mean            =  -1.9345287619174E-22
(PID.TID 0000.0001) %MON dynstat_wvel_sd              =   3.0060936612786E-05
(PID.TID 0000.0001) %MON dynstat_wvel_del2            =   1.4471855515124E-08
(PID.TID 0000.0001) %MON dynstat_theta_max            =   2.0000675533542E+01
(PID.TID 0000.0001) %MON dynstat_theta_min            =   6.0002109372769E+00
(PID.TID 0000.0001) %MON dynstat_theta_mean           =   1.1000000040996E+01
(PID.TID 0000.0001) %MON dynstat_theta_sd             =   5.3842024425558E+00
(PID.TID 0000.0001) %MON dynstat_theta_del2           =   3.4829573321127E-07
(PID.TID 0000.0001) %MON dynstat_salt_max             =   1.0000000000000E+01
(PID.TID 0000.0001) %MON dynstat_salt_min             =   1.0000000000000E+01
(PID.TID 0000.0001) %MON dynstat_salt_mean            =   1.0000000000000E+01
(PID.TID 0000.0001) %MON dynstat_salt_sd              =   0.0000000000000E+00
(PID.TID 0000.0001) %MON dynstat_salt_del2            =   0.0000000000000E+00
(PID.TID 0000.0001) %MON advcfl_uvel_max              =   2.1399731621522E-04
(PID.TID 0000.0001) %MON advcfl_vvel_max              =   2.1399819966086E-04
(PID.TID 0000.0001) %MON advcfl_wvel_max              =   5.1380422730259E-04
(PID.TID 0000.0001) %MON advcfl_W_hf_max              =   1.9264969559842E-04
(PID.TID 0000.0001) %MON pe_b_mean                    =  -1.0784240963491E-04
(PID.TID 0000.0001) %MON ke_max                       =   1.9972175079815E-04
(PID.TID 0000.0001) %MON ke_mean                      =   6.5002985182741E-05
(PID.TID 0000.0001) %MON ke_vol                       =   5.6340000000000E+16
(PID.TID 0000.0001) %MON vort_r_min                   =  -5.9472483647028E-08
(PID.TID 0000.0001) %MON vort_r_max                   =   5.9472528754793E-08
(PID.TID 0000.0001) %MON vort_a_mean                  =   1.0000000000000E-04
(PID.TID 0000.0001) %MON vort_a_sd                    =   1.0054981022804E-08
(PID.TID 0000.0001) %MON vort_p_mean                  =   1.0398839738941E-04
(PID.TID 0000.0001) %MON vort_p_sd                    =   3.0798698875689E-05
(PID.TID 0000.0001) %MON surfExpan_theta_mean         =  -5.8151047085228E-08
(PID.TID 0000.0001) %MON surfExpan_salt_mean          =   6.3212238646248E-20
(PID.TID 0000.0001) // =======================================================
(PID.TID 0000.0001) // End MONITOR dynamic field statistics
(PID.TID 0000.0001) // =======================================================
 cg2d: Sum(rhs),rhsMax =  -1.54098955817972E-13  2.03007310000329E+00
(PID.TID 0000.0001)                    cg2d_init_res =    5.27275773877492E+00
(PID.TID 0000.0001)                       cg2d_iters =    34
(PID.TID 0000.0001)                         cg2d_res =    9.31576212757480E-14
(PID.TID 0000.0001) // =======================================================
(PID.TID 0000.0001) // Begin MONITOR dynamic field statistics
(PID.TID 0000.0001) // =======================================================
(PID.TID 0000.0001) %MON time_tsnumber                =                     5
(PID.TID 0000.0001) %MON time_secondsf                =   6.0000000000000E+03
(PID.TID 0000.0001) %MON dynstat_eta_max              =   5.1882222962407E-01
(PID.TID 0000.0001) %MON dynstat_eta_min              =  -5.1880597494369E-01
(PID.TID 0000.0001) %MON dynstat_eta_mean             =   3.6192092651757E-17
(PID.TID 0000.0001) %MON dynstat_eta_sd               =   2.3660172751482E-01
(PID.TID 0000.0001) %MON dynstat_eta_del2             =   1.8386973063691E-04
(PID.TID 0000.0001) %MON dynstat_uvel_max             =   1.8514920844354E-02
(PID.TID 0000.0001) %MON dynstat_uvel_min             =  -1.8514920844354E-02
(PID.TID 0000.0001) %MON dynstat_uvel_mean            =   9.5602565264685E-19
(PID.TID 0000.0001) %MON dynstat_uvel_sd              =   7.7432996470766E-03
(PID.TID 0000.0001) %MON dynstat_uvel_del2            =   3.6191915306994E-06
(PID.TID 0000.0001) %MON dynstat_vvel_max             =   1.8515007343977E-02
(PID.TID 0000.0001) %MON dynstat_vvel_min             =  -1.8515007343977E-02
(PID.TID 0000.0001) %MON dynstat_vvel_mean            =   2.8326686004351E-18
(PID.TID 0000.0001) %MON dynstat_vvel_sd              =   7.7432740569759E-03
(PID.TID 0000.0001) %MON dynstat_vvel_del2            =   3.6191093183176E-06
(PID.TID 0000.0001) %MON dynstat_wvel_max             =   9.8103244174899E-05
(PID.TID 0000.0001) %MON dynstat_wvel_min             =  -9.8100281115035E-05
(PID.TID 0000.0001) %MON dynstat_wvel_mean            =  -4.0625104000266E-22
(PID.TID 0000.0001) %MON dynstat_wvel_sd              =   2.6575981890152E-05
(PID.TID 0000.0001) %MON dynstat_wvel_del2            =   1.2751759189959E-08
(PID.TID 0000.0001) %MON dynstat_theta_max            =   2.0001186792087E+01
(PID.TID 0000.0001) %MON dynstat_theta_min            =   6.0002408438708E+00
(PID.TID 0000.0001) %MON dynstat_theta_mean           =   1.1000000084191E+01
(PID.TID 0000.0001) %MON dynstat_theta_sd             =   5.3839619661975E+00
(PID.TID 0000.0001) %MON dynstat_theta_del2           =   4.8841748297774E-07
(PID.TID 0000.0001) %MON dynstat_salt_max             =   1.0000000000000E+01
(PID.TID 0000.0001) %MON dynstat_salt_min             =   1.0000000000000E+01
(PID.TID 0000.0001) %MON dynstat_salt_mean            =   1.0000000000000E+01
(PID.TID 0000.0001) %MON dynstat_salt_sd              =   0.0000000000000E+00
(PID.TID 0000.0001) %MON dynstat_salt_del2            =   0.0000000000000E+00
(PID.TID 0000.0001) %MON advcfl_uvel_max              =   2.2217905013225E-04
(PID.TID 0000.0001) %MON advcfl_vvel_max              =   2.2218008812773E-04
(PID.TID 0000.0001) %MON advcfl_wvel_max              =   4.7089557203951E-04
(PID.TID 0000.0001) %MON advcfl_W_hf_max              =   1.7653450794180E-04
(PID.TID 0000.0001) %MON pe_b_mean                    =  -1.0833714994443E-04
(PID.TID 0000.0001) %MON ke_max                       =   1.9151348315950E-04
(PID.TID 0000.0001) %MON ke_mean                      =   5.8702704625747E-05
(PID.TID 0000.0001) %MON ke_vol                       =   5.6340000000000E+16
(PID.TID 0000.0001) %MON vort_r_min                   =  -4.4715400563557E-08
(PID.TID 0000.0001) %MON vort_r_max                   =   4.4715112663732E-08
(PID.TID 0000.0001) %MON vort_a_mean                  =   1.0000000000000E-04
(PID.TID 0000.0001) %MON vort_a_sd                    =   1.1466705485181E-08
(PID.TID 0000.0001) %MON vort_p_mean                  =   1.0398839738941E-04
(PID.TID 0000.0001) %MON vort_p_sd                    =   3.0798699136282E-05
(PID.TID 0000.0001) %MON surfExpan_theta_mean         =  -6.9650582661049E-08
(PID.TID 0000.0001) %MON surfExpan_salt_mean          =  -2.5919662708503E-20
(PID.TID 0000.0001) // =======================================================
(PID.TID 0000.0001) // End MONITOR dynamic field statistics
(PID.TID 0000.0001) // =======================================================
 cg2d: Sum(rhs),rhsMax =  -2.11386463888630E-13  2.39420955438586E+00
(PID.TID 0000.0001)                    cg2d_init_res =    3.36071754825144E+00
(PID.TID 0000.0001)                       cg2d_iters =    34
(PID.TID 0000.0001)                         cg2d_res =    5.75986173828135E-14
(PID.TID 0000.0001) // =======================================================
(PID.TID 0000.0001) // Begin MONITOR dynamic field statistics
(PID.TID 0000.0001) // =======================================================
(PID.TID 0000.0001) %MON time_tsnumber                =                     6
(PID.TID 0000.0001) %MON time_secondsf                =   7.2000000000000E+03
(PID.TID 0000.0001) %MON dynstat_eta_max              =   6.1139604992383E-01
(PID.TID 0000.0001) %MON dynstat_eta_min              =  -6.1138327310032E-01
(PID.TID 0000.0001) %MON dynstat_eta_mean             =   6.0181487397941E-17
(PID.TID 0000.0001) %MON dynstat_eta_sd               =   2.7443773042957E-01
(PID.TID 0000.0001) %MON dynstat_eta_del2             =   2.1580817417757E-04
(PID.TID 0000.0001) %MON dynstat_uvel_max             =   1.7536203985274E-02
(PID.TID 0000.0001) %MON dynstat_uvel_min             =  -1.7536203985274E-02
(PID.TID 0000.0001) %MON dynstat_uvel_mean            =   1.4517426577230E-18
(PID.TID 0000.0001) %MON dynstat_uvel_sd              =   6.8074204830686E-03
(PID.TID 0000.0001) %MON dynstat_uvel_del2            =   2.9847463640432E-06
(PID.TID 0000.0001) %MON dynstat_vvel_max             =   1.7536272263998E-02
(PID.TID 0000.0001) %MON dynstat_vvel_min             =  -1.7536272263998E-02
(PID.TID 0000.0001) %MON dynstat_vvel_mean            =   1.8412345902828E-18
(PID.TID 0000.0001) %MON dynstat_vvel_sd              =   6.8073914763355E-03
(PID.TID 0000.0001) %MON dynstat_vvel_del2            =   2.9847114267009E-06
(PID.TID 0000.0001) %MON dynstat_wvel_max             =   7.7144850249796E-05
(PID.TID 0000.0001) %MON dynstat_wvel_min             =  -7.7147748463862E-05
(PID.TID 0000.0001) %MON dynstat_wvel_mean            =   3.8690575238349E-23
(PID.TID 0000.0001) %MON dynstat_wvel_sd              =   1.9994949790005E-05
(PID.TID 0000.0001) %MON dynstat_wvel_del2            =   9.6234123000122E-09
(PID.TID 0000.0001) %MON dynstat_theta_max            =   2.0001539518074E+01
(PID.TID 0000.0001) %MON dynstat_theta_min            =   6.0002813261688E+00
(PID.TID 0000.0001) %MON dynstat_theta_mean           =   1.1000000130122E+01
(PID.TID 0000.0001) %MON dynstat_theta_sd             =   5.3837215164893E+00
(PID.TID 0000.0001) %MON dynstat_theta_del2           =   6.0092669727270E-07
(PID.TID 0000.0001) %MON dynstat_salt_max             =   1.0000000000000E+01
(PID.TID 0000.0001) %MON dynstat_salt_min             =   1.0000000000000E+01
(PID.TID 0000.0001) %MON dynstat_salt_mean            =   1.0000000000000E+01
(PID.TID 0000.0001) %MON dynstat_salt_sd              =   0.0000000000000E+00
(PID.TID 0000.0001) %MON dynstat_salt_del2            =   0.0000000000000E+00
(PID.TID 0000.0001) %MON advcfl_uvel_max              =   2.1043444782329E-04
(PID.TID 0000.0001) %MON advcfl_vvel_max              =   2.1043526716798E-04
(PID.TID 0000.0001) %MON advcfl_wvel_max              =   3.7030919262654E-04
(PID.TID 0000.0001) %MON advcfl_W_hf_max              =   1.3878386854751E-04
(PID.TID 0000.0001) %MON pe_b_mean                    =  -1.0073168959855E-04
(PID.TID 0000.0001) %MON ke_max                       =   1.5675584598627E-04
(PID.TID 0000.0001) %MON ke_mean                      =   4.5370202585832E-05
(PID.TID 0000.0001) %MON ke_vol                       =   5.6340000000000E+16
(PID.TID 0000.0001) %MON vort_r_min                   =  -2.9325543178925E-08
(PID.TID 0000.0001) %MON vort_r_max                   =   2.9334660369137E-08
(PID.TID 0000.0001) %MON vort_a_mean                  =   1.0000000000000E-04
(PID.TID 0000.0001) %MON vort_a_sd                    =   1.3020108304575E-08
(PID.TID 0000.0001) %MON vort_p_mean                  =   1.0398839738941E-04
(PID.TID 0000.0001) %MON vort_p_sd                    =   3.0798699611735E-05
(PID.TID 0000.0001) %MON surfExpan_theta_mean         =  -6.3099715313424E-08
(PID.TID 0000.0001) %MON surfExpan_salt_mean          =   4.6549598333638E-20
(PID.TID 0000.0001) // =======================================================
(PID.TID 0000.0001) // End MONITOR dynamic field statistics
(PID.TID 0000.0001) // =======================================================
 cg2d: Sum(rhs),rhsMax =  -8.88178419700125E-14  2.62338747279063E+00
(PID.TID 0000.0001)                    cg2d_init_res =    1.79906136018672E+00
(PID.TID 0000.0001)                       cg2d_iters =    33
(PID.TID 0000.0001)                         cg2d_res =    9.02671933090875E-14
(PID.TID 0000.0001) // =======================================================
(PID.TID 0000.0001) // Begin MONITOR dynamic field statistics
(PID.TID 0000.0001) // =======================================================
(PID.TID 0000.0001) %MON time_tsnumber                =                     7
(PID.TID 0000.0001) %MON time_secondsf                =   8.4000000000000E+03
(PID.TID 0000.0001) %MON dynstat_eta_max              =   6.6912965978854E-01
(PID.TID 0000.0001) %MON dynstat_eta_min              =  -6.6912860100881E-01
(PID.TID 0000.0001) %MON dynstat_eta_mean             =   9.6512247071353E-17
(PID.TID 0000.0001) %MON dynstat_eta_sd               =   2.9607523814104E-01
(PID.TID 0000.0001) %MON dynstat_eta_del2             =   2.3400237225880E-04
(PID.TID 0000.0001) %MON dynstat_uvel_max             =   1.5237414741347E-02
(PID.TID 0000.0001) %MON dynstat_uvel_min             =  -1.5237414741347E-02
(PID.TID 0000.0001) %MON dynstat_uvel_mean            =   1.7881220540247E-18
(PID.TID 0000.0001) %MON dynstat_uvel_sd              =   5.8320359065601E-03
(PID.TID 0000.0001) %MON dynstat_uvel_del2            =   2.4933584624212E-06
(PID.TID 0000.0001) %MON dynstat_vvel_max             =   1.5237443022960E-02
(PID.TID 0000.0001) %MON dynstat_vvel_min             =  -1.5237443022960E-02
(PID.TID 0000.0001) %MON dynstat_vvel_mean            =  -2.8326686004351E-19
(PID.TID 0000.0001) %MON dynstat_vvel_sd              =   5.8320086906209E-03
(PID.TID 0000.0001) %MON dynstat_vvel_del2            =   2.4933914639047E-06
(PID.TID 0000.0001) %MON dynstat_wvel_max             =   4.8111341553932E-05
(PID.TID 0000.0001) %MON dynstat_wvel_min             =  -4.8121106590415E-05
(PID.TID 0000.0001) %MON dynstat_wvel_mean            =  -5.8035862857523E-22
(PID.TID 0000.0001) %MON dynstat_wvel_sd              =   1.1742790961584E-05
(PID.TID 0000.0001) %MON dynstat_wvel_del2            =   5.7693902691531E-09
(PID.TID 0000.0001) %MON dynstat_theta_max            =   2.0001640111462E+01
(PID.TID 0000.0001) %MON dynstat_theta_min            =   6.0003386265456E+00
(PID.TID 0000.0001) %MON dynstat_theta_mean           =   1.1000000165623E+01
(PID.TID 0000.0001) %MON dynstat_theta_sd             =   5.3834810742476E+00
(PID.TID 0000.0001) %MON dynstat_theta_del2           =   6.7378154691189E-07
(PID.TID 0000.0001) %MON dynstat_salt_max             =   1.0000000000000E+01
(PID.TID 0000.0001) %MON dynstat_salt_min             =   1.0000000000000E+01
(PID.TID 0000.0001) %MON dynstat_salt_mean            =   1.0000000000000E+01
(PID.TID 0000.0001) %MON dynstat_salt_sd              =   0.0000000000000E+00
(PID.TID 0000.0001) %MON dynstat_salt_del2            =   0.0000000000000E+00
(PID.TID 0000.0001) %MON advcfl_uvel_max              =   1.8284897689616E-04
(PID.TID 0000.0001) %MON advcfl_vvel_max              =   1.8284931627552E-04
(PID.TID 0000.0001) %MON advcfl_wvel_max              =   2.3098131163399E-04
(PID.TID 0000.0001) %MON advcfl_W_hf_max              =   8.6500976474733E-05
(PID.TID 0000.0001) %MON pe_b_mean                    =  -9.3551413596687E-05
(PID.TID 0000.0001) %MON ke_max                       =   1.1748146543644E-04
(PID.TID 0000.0001) %MON ke_mean                      =   3.3300117544976E-05
(PID.TID 0000.0001) %MON ke_vol                       =   5.6340000000000E+16
(PID.TID 0000.0001) %MON vort_r_min                   =  -3.3159114059730E-08
(PID.TID 0000.0001) %MON vort_r_max                   =   3.3170440021084E-08
(PID.TID 0000.0001) %MON vort_a_mean                  =   1.0000000000000E-04
(PID.TID 0000.0001) %MON vort_a_sd                    =   1.4548924161328E-08
(PID.TID 0000.0001) %MON vort_p_mean                  =   1.0398839738941E-04
(PID.TID 0000.0001) %MON vort_p_sd                    =   3.0798700412578E-05
(PID.TID 0000.0001) %MON surfExpan_theta_mean         =  -4.0164009548858E-08
(PID.TID 0000.0001) %MON surfExpan_salt_mean          =  -4.2317816666944E-21
(PID.TID 0000.0001) // =======================================================
(PID.TID 0000.0001) // End MONITOR dynamic field statistics
(PID.TID 0000.0001) // =======================================================
 cg2d: Sum(rhs),rhsMax =  -3.12638803734444E-13  2.70007852965821E+00
(PID.TID 0000.0001)                    cg2d_init_res =    6.25423958833091E-01
(PID.TID 0000.0001)                       cg2d_iters =    33
(PID.TID 0000.0001)                         cg2d_res =    6.40546375893713E-14
(PID.TID 0000.0001) // =======================================================
(PID.TID 0000.0001) // Begin MONITOR dynamic field statistics
(PID.TID 0000.0001) // =======================================================
(PID.TID 0000.0001) %MON time_tsnumber                =                     8
(PID.TID 0000.0001) %MON time_secondsf                =   9.6000000000000E+03
(PID.TID 0000.0001) %MON dynstat_eta_max              =   6.8810274952407E-01
(PID.TID 0000.0001) %MON dynstat_eta_min              =  -6.8811864057415E-01
(PID.TID 0000.0001) %MON dynstat_eta_mean             =   1.2230431309904E-16
(PID.TID 0000.0001) %MON dynstat_eta_sd               =   3.0074297179599E-01
(PID.TID 0000.0001) %MON dynstat_eta_del2             =   2.3772500216560E-04
(PID.TID 0000.0001) %MON dynstat_uvel_max             =   1.2169878143416E-02
(PID.TID 0000.0001) %MON dynstat_uvel_min             =  -1.2169878143416E-02
(PID.TID 0000.0001) %MON dynstat_uvel_mean            =  -5.7538580946338E-19
(PID.TID 0000.0001) %MON dynstat_uvel_sd              =   5.3229967588439E-03
(PID.TID 0000.0001) %MON dynstat_uvel_del2            =   2.4707291980016E-06
(PID.TID 0000.0001) %MON dynstat_vvel_max             =   1.2169740292514E-02
(PID.TID 0000.0001) %MON dynstat_vvel_min             =  -1.2169740292514E-02
(PID.TID 0000.0001) %MON dynstat_vvel_mean            =   1.4163343002175E-18
(PID.TID 0000.0001) %MON dynstat_vvel_sd              =   5.3229879922717E-03
(PID.TID 0000.0001) %MON dynstat_vvel_del2            =   2.4708179683931E-06
(PID.TID 0000.0001) %MON dynstat_wvel_max             =   1.6288665013119E-05
(PID.TID 0000.0001) %MON dynstat_wvel_min             =  -1.6301768556052E-05
(PID.TID 0000.0001) %MON dynstat_wvel_mean            =  -3.8690575238349E-23
(PID.TID 0000.0001) %MON dynstat_wvel_sd              =   4.2493945934098E-06
(PID.TID 0000.0001) %MON dynstat_wvel_del2            =   2.3200083745620E-09
(PID.TID 0000.0001) %MON dynstat_theta_max            =   2.0001435882672E+01
(PID.TID 0000.0001) %MON dynstat_theta_min            =   6.0004162576411E+00
(PID.TID 0000.0001) %MON dynstat_theta_mean           =   1.1000000181465E+01
(PID.TID 0000.0001) %MON dynstat_theta_sd             =   5.3832406263843E+00
(PID.TID 0000.0001) %MON dynstat_theta_del2           =   7.0221907007407E-07
(PID.TID 0000.0001) %MON dynstat_salt_max             =   1.0000000000000E+01
(PID.TID 0000.0001) %MON dynstat_salt_min             =   1.0000000000000E+01
(PID.TID 0000.0001) %MON dynstat_salt_mean            =   1.0000000000000E+01
(PID.TID 0000.0001) %MON dynstat_salt_sd              =   0.0000000000000E+00
(PID.TID 0000.0001) %MON dynstat_salt_del2            =   0.0000000000000E+00
(PID.TID 0000.0001) %MON advcfl_uvel_max              =   1.4603853772099E-04
(PID.TID 0000.0001) %MON advcfl_vvel_max              =   1.4603688351017E-04
(PID.TID 0000.0001) %MON advcfl_wvel_max              =   7.8248489069048E-05
(PID.TID 0000.0001) %MON advcfl_W_hf_max              =   2.9194414616844E-05
(PID.TID 0000.0001) %MON pe_b_mean                    =  -9.2247691811590E-05
(PID.TID 0000.0001) %MON ke_max                       =   9.1535962694454E-05
(PID.TID 0000.0001) %MON ke_mean                      =   2.7740807779863E-05
(PID.TID 0000.0001) %MON ke_vol                       =   5.6340000000000E+16
(PID.TID 0000.0001) %MON vort_r_min                   =  -4.7143928921675E-08
(PID.TID 0000.0001) %MON vort_r_max                   =   4.7147385184425E-08
(PID.TID 0000.0001) %MON vort_a_mean                  =   1.0000000000000E-04
(PID.TID 0000.0001) %MON vort_a_sd                    =   1.5766121478863E-08
(PID.TID 0000.0001) %MON vort_p_mean                  =   1.0398839738941E-04
(PID.TID 0000.0001) %MON vort_p_sd                    =   3.0798701384749E-05
(PID.TID 0000.0001) %MON surfExpan_theta_mean         =  -9.0096543726079E-09
(PID.TID 0000.0001) %MON surfExpan_salt_mean          =   4.4962680208628E-21
(PID.TID 0000.0001) // =======================================================
(PID.TID 0000.0001) // End MONITOR dynamic field statistics
(PID.TID 0000.0001) // =======================================================
 cg2d: Sum(rhs),rhsMax =  -3.11750625314744E-13  2.63083310899421E+00
(PID.TID 0000.0001)                    cg2d_init_res =    1.03984266857429E+00
(PID.TID 0000.0001)                       cg2d_iters =    33
(PID.TID 0000.0001)                         cg2d_res =    8.46742343909120E-14
(PID.TID 0000.0001) // =======================================================
(PID.TID 0000.0001) // Begin MONITOR dynamic field statistics
(PID.TID 0000.0001) // =======================================================
(PID.TID 0000.0001) %MON time_tsnumber                =                     9
(PID.TID 0000.0001) %MON time_secondsf                =   1.0800000000000E+04
(PID.TID 0000.0001) %MON dynstat_eta_max              =   6.7031651889180E-01
(PID.TID 0000.0001) %MON dynstat_eta_min              =  -6.7034871769191E-01
(PID.TID 0000.0001) %MON dynstat_eta_mean             =   1.4781904508342E-16
(PID.TID 0000.0001) %MON dynstat_eta_sd               =   2.9012560355633E-01
(PID.TID 0000.0001) %MON dynstat_eta_del2             =   2.2835607670526E-04
(PID.TID 0000.0001) %MON dynstat_uvel_max             =   1.0668566799162E-02
(PID.TID 0000.0001) %MON dynstat_uvel_min             =  -1.0668566799162E-02
(PID.TID 0000.0001) %MON dynstat_uvel_mean            =   2.6556268129079E-19
(PID.TID 0000.0001) %MON dynstat_uvel_sd              =   5.4390892318645E-03
(PID.TID 0000.0001) %MON dynstat_uvel_del2            =   2.8332347523270E-06
(PID.TID 0000.0001) %MON dynstat_vvel_max             =   1.0667462668697E-02
(PID.TID 0000.0001) %MON dynstat_vvel_min             =  -1.0667462668697E-02
(PID.TID 0000.0001) %MON dynstat_vvel_mean            =  -2.2661348803481E-18
(PID.TID 0000.0001) %MON dynstat_vvel_sd              =   5.4391239789766E-03
(PID.TID 0000.0001) %MON dynstat_vvel_del2            =   2.8333852759062E-06
(PID.TID 0000.0001) %MON dynstat_wvel_max             =   2.6641418192173E-05
(PID.TID 0000.0001) %MON dynstat_wvel_min             =  -2.6643936038332E-05
(PID.TID 0000.0001) %MON dynstat_wvel_mean            =  -8.0706121786243E-23
(PID.TID 0000.0001) %MON dynstat_wvel_sd              =   6.8466434919195E-06
(PID.TID 0000.0001) %MON dynstat_wvel_del2            =   3.2068593795302E-09
(PID.TID 0000.0001) %MON dynstat_theta_max            =   2.0000923415215E+01
(PID.TID 0000.0001) %MON dynstat_theta_min            =   6.0005144450455E+00
(PID.TID 0000.0001) %MON dynstat_theta_mean           =   1.1000000175655E+01
(PID.TID 0000.0001) %MON dynstat_theta_sd             =   5.3830001703902E+00
(PID.TID 0000.0001) %MON dynstat_theta_del2           =   6.8811565245539E-07
(PID.TID 0000.0001) %MON dynstat_salt_max             =   1.0000000000000E+01
(PID.TID 0000.0001) %MON dynstat_salt_min             =   1.0000000000000E+01
(PID.TID 0000.0001) %MON dynstat_salt_mean            =   1.0000000000000E+01
(PID.TID 0000.0001) %MON dynstat_salt_sd              =   0.0000000000000E+00
(PID.TID 0000.0001) %MON dynstat_salt_del2            =   0.0000000000000E+00
(PID.TID 0000.0001) %MON advcfl_uvel_max              =   1.2802280158995E-04
(PID.TID 0000.0001) %MON advcfl_vvel_max              =   1.2800955202437E-04
(PID.TID 0000.0001) %MON advcfl_wvel_max              =   1.2789089298399E-04
(PID.TID 0000.0001) %MON advcfl_W_hf_max              =   4.8311819788791E-05
(PID.TID 0000.0001) %MON pe_b_mean                    =  -9.7262373620662E-05
(PID.TID 0000.0001) %MON ke_max                       =   8.4812810841866E-05
(PID.TID 0000.0001) %MON ke_mean                      =   2.8964267971338E-05
(PID.TID 0000.0001) %MON ke_vol                       =   5.6340000000000E+16
(PID.TID 0000.0001) %MON vort_r_min                   =  -6.4235589446321E-08
(PID.TID 0000.0001) %MON vort_r_max                   =   6.4236482961341E-08
(PID.TID 0000.0001) %MON vort_a_mean                  =   1.0000000000000E-04
(PID.TID 0000.0001) %MON vort_a_sd                    =   1.6413207619824E-08
(PID.TID 0000.0001) %MON vort_p_mean                  =   1.0398839738941E-04
(PID.TID 0000.0001) %MON vort_p_sd                    =   3.0798702197688E-05
(PID.TID 0000.0001) %MON surfExpan_theta_mean         =   2.0130946947976E-08
(PID.TID 0000.0001) %MON surfExpan_salt_mean          =  -2.8101675130393E-21
(PID.TID 0000.0001) // =======================================================
(PID.TID 0000.0001) // End MONITOR dynamic field statistics
(PID.TID 0000.0001) // =======================================================
 cg2d: Sum(rhs),rhsMax =  -4.76063632959267E-13  2.44294115055914E+00
(PID.TID 0000.0001)                    cg2d_init_res =    2.06581976588044E+00
(PID.TID 0000.0001)                       cg2d_iters =    34
(PID.TID 0000.0001)                         cg2d_res =    4.89584435967727E-14
(PID.TID 0000.0001) // =======================================================
(PID.TID 0000.0001) // Begin MONITOR dynamic field statistics
(PID.TID 0000.0001) // =======================================================
(PID.TID 0000.0001) %MON time_tsnumber                =                    10
(PID.TID 0000.0001) %MON time_secondsf                =   1.2000000000000E+04
(PID.TID 0000.0001) %MON dynstat_eta_max              =   6.2288688399073E-01
(PID.TID 0000.0001) %MON dynstat_eta_min              =  -6.2292901925198E-01
(PID.TID 0000.0001) %MON dynstat_eta_mean             =   1.4171769613064E-16
(PID.TID 0000.0001) %MON dynstat_eta_sd               =   2.6783313841019E-01
(PID.TID 0000.0001) %MON dynstat_eta_del2             =   2.0892753065101E-04
(PID.TID 0000.0001) %MON dynstat_uvel_max             =   1.2529575761296E-02
(PID.TID 0000.0001) %MON dynstat_uvel_min             =  -1.2529575761296E-02
(PID.TID 0000.0001) %MON dynstat_uvel_mean            =  -1.6287844452502E-18
(PID.TID 0000.0001) %MON dynstat_uvel_sd              =   5.8367574991383E-03
(PID.TID 0000.0001) %MON dynstat_uvel_del2            =   3.2257358006106E-06
(PID.TID 0000.0001) %MON dynstat_vvel_max             =   1.2529003649843E-02
(PID.TID 0000.0001) %MON dynstat_vvel_min             =  -1.2529003649843E-02
(PID.TID 0000.0001) %MON dynstat_vvel_mean            =  -1.8412345902828E-18
(PID.TID 0000.0001) %MON dynstat_vvel_sd              =   5.8368505532888E-03
(PID.TID 0000.0001) %MON dynstat_vvel_del2            =   3.2259802667209E-06
(PID.TID 0000.0001) %MON dynstat_wvel_max             =   3.9516415366609E-05
(PID.TID 0000.0001) %MON dynstat_wvel_min             =  -3.9524695750896E-05
(PID.TID 0000.0001) %MON dynstat_wvel_mean            =   1.3541701333422E-22
(PID.TID 0000.0001) %MON dynstat_wvel_sd              =   1.2580107086903E-05
(PID.TID 0000.0001) %MON dynstat_wvel_del2            =   5.8137221779935E-09
(PID.TID 0000.0001) %MON dynstat_theta_max            =   2.0000144344186E+01
(PID.TID 0000.0001) %MON dynstat_theta_min            =   6.0006304099922E+00
(PID.TID 0000.0001) %MON dynstat_theta_mean           =   1.1000000153086E+01
(PID.TID 0000.0001) %MON dynstat_theta_sd             =   5.3827597136921E+00
(PID.TID 0000.0001) %MON dynstat_theta_del2           =   6.3898469399629E-07
(PID.TID 0000.0001) %MON dynstat_salt_max             =   1.0000000000000E+01
(PID.TID 0000.0001) %MON dynstat_salt_min             =   1.0000000000000E+01
(PID.TID 0000.0001) %MON dynstat_salt_mean            =   1.0000000000000E+01
(PID.TID 0000.0001) %MON dynstat_salt_sd              =   0.0000000000000E+00
(PID.TID 0000.0001) %MON dynstat_salt_del2            =   0.0000000000000E+00
(PID.TID 0000.0001) %MON advcfl_uvel_max              =   1.5035490913555E-04
(PID.TID 0000.0001) %MON advcfl_vvel_max              =   1.5034804379811E-04
(PID.TID 0000.0001) %MON advcfl_wvel_max              =   1.8971853960430E-04
(PID.TID 0000.0001) %MON advcfl_W_hf_max              =   7.1361992832701E-05
(PID.TID 0000.0001) %MON pe_b_mean                    =  -1.0511078636426E-04
(PID.TID 0000.0001) %MON ke_max                       =   9.1516264559986E-05
(PID.TID 0000.0001) %MON ke_mean                      =   3.3354746065693E-05
(PID.TID 0000.0001) %MON ke_vol                       =   5.6340000000000E+16
(PID.TID 0000.0001) %MON vort_r_min                   =  -7.4265441762528E-08
(PID.TID 0000.0001) %MON vort_r_max                   =   7.4263173818803E-08
(PID.TID 0000.0001) %MON vort_a_mean                  =   1.0000000000000E-04
(PID.TID 0000.0001) %MON vort_a_sd                    =   1.6335113270238E-08
(PID.TID 0000.0001) %MON vort_p_mean                  =   1.0398839738941E-04
(PID.TID 0000.0001) %MON vort_p_sd                    =   3.0798702518314E-05
(PID.TID 0000.0001) %MON surfExpan_theta_mean         =   3.9498824365013E-08
(PID.TID 0000.0001) %MON surfExpan_salt_mean          =  -2.9093498958524E-21
(PID.TID 0000.0001) // =======================================================
(PID.TID 0000.0001) // End MONITOR dynamic field statistics
(PID.TID 0000.0001) // =======================================================
 cg2d: Sum(rhs),rhsMax =  -6.23501250629488E-13  2.17839487313239E+00
(PID.TID 0000.0001)                    cg2d_init_res =    2.98920657718264E+00
(PID.TID 0000.0001)                       cg2d_iters =    34
(PID.TID 0000.0001)                         cg2d_res =    6.69969678172721E-14
(PID.TID 0000.0001) // =======================================================
(PID.TID 0000.0001) // Begin MONITOR dynamic field statistics
(PID.TID 0000.0001) // =======================================================
(PID.TID 0000.0001) %MON time_tsnumber                =                    11
(PID.TID 0000.0001) %MON time_secondsf                =   1.3200000000000E+04
(PID.TID 0000.0001) %MON dynstat_eta_max              =   5.5643926557886E-01
(PID.TID 0000.0001) %MON dynstat_eta_min              =  -5.5648215487898E-01
(PID.TID 0000.0001) %MON dynstat_eta_mean             =   1.2965366524672E-16
(PID.TID 0000.0001) %MON dynstat_eta_sd               =   2.3866735607172E-01
(PID.TID 0000.0001) %MON dynstat_eta_del2             =   1.8352020094096E-04
(PID.TID 0000.0001) %MON dynstat_uvel_max             =   1.3881624161929E-02
(PID.TID 0000.0001) %MON dynstat_uvel_min             =  -1.3881624161929E-02
(PID.TID 0000.0001) %MON dynstat_uvel_mean            =   6.3735043509790E-19
(PID.TID 0000.0001) %MON dynstat_uvel_sd              =   6.0836008349859E-03
(PID.TID 0000.0001) %MON dynstat_uvel_del2            =   3.4092559259027E-06
(PID.TID 0000.0001) %MON dynstat_vvel_max             =   1.3882243768745E-02
(PID.TID 0000.0001) %MON dynstat_vvel_min             =  -1.3882243768744E-02
(PID.TID 0000.0001) %MON dynstat_vvel_mean            =   7.0816715010877E-19
(PID.TID 0000.0001) %MON dynstat_vvel_sd              =   6.0837532255465E-03
(PID.TID 0000.0001) %MON dynstat_vvel_del2            =   3.4096085815597E-06
(PID.TID 0000.0001) %MON dynstat_wvel_max             =   5.5372386977507E-05
(PID.TID 0000.0001) %MON dynstat_wvel_min             =  -5.5373015343225E-05
(PID.TID 0000.0001) %MON dynstat_wvel_mean            =   5.4166805333688E-22
(PID.TID 0000.0001) %MON dynstat_wvel_sd              =   1.6220251360182E-05
(PID.TID 0000.0001) %MON dynstat_wvel_del2            =   7.5218827865507E-09
(PID.TID 0000.0001) %MON dynstat_theta_max            =   1.9999175016552E+01
(PID.TID 0000.0001) %MON dynstat_theta_min            =   6.0007590598526E+00
(PID.TID 0000.0001) %MON dynstat_theta_mean           =   1.1000000122414E+01
(PID.TID 0000.0001) %MON dynstat_theta_sd             =   5.3825192691746E+00
(PID.TID 0000.0001) %MON dynstat_theta_del2           =   5.6632255691197E-07
(PID.TID 0000.0001) %MON dynstat_salt_max             =   1.0000000000000E+01
(PID.TID 0000.0001) %MON dynstat_salt_min             =   1.0000000000000E+01
(PID.TID 0000.0001) %MON dynstat_salt_mean            =   1.0000000000000E+01
(PID.TID 0000.0001) %MON dynstat_salt_sd              =   0.0000000000000E+00
(PID.TID 0000.0001) %MON dynstat_salt_del2            =   0.0000000000000E+00
(PID.TID 0000.0001) %MON advcfl_uvel_max              =   1.6657948994314E-04
(PID.TID 0000.0001) %MON advcfl_vvel_max              =   1.6658692522493E-04
(PID.TID 0000.0001) %MON advcfl_wvel_max              =   2.6579047364748E-04
(PID.TID 0000.0001) %MON advcfl_W_hf_max              =   9.9911193195974E-05
(PID.TID 0000.0001) %MON pe_b_mean                    =  -1.1120495066229E-04
(PID.TID 0000.0001) %MON ke_max                       =   9.9972843951851E-05
(PID.TID 0000.0001) %MON ke_mean                      =   3.6235955306815E-05
(PID.TID 0000.0001) %MON ke_vol                       =   5.6340000000000E+16
(PID.TID 0000.0001) %MON vort_r_min                   =  -7.6581253005467E-08
(PID.TID 0000.0001) %MON vort_r_max                   =   7.6576159242721E-08
(PID.TID 0000.0001) %MON vort_a_mean                  =   1.0000000000000E-04
(PID.TID 0000.0001) %MON vort_a_sd                    =   1.5501366651255E-08
(PID.TID 0000.0001) %MON vort_p_mean                  =   1.0398839738941E-04
(PID.TID 0000.0001) %MON vort_p_sd                    =   3.0798702172504E-05
(PID.TID 0000.0001) %MON surfExpan_theta_mean         =   4.6315381584325E-08
(PID.TID 0000.0001) %MON surfExpan_salt_mean          =   1.9571990208462E-20
(PID.TID 0000.0001) // =======================================================
(PID.TID 0000.0001) // End MONITOR dynamic field statistics
(PID.TID 0000.0001) // =======================================================
 cg2d: Sum(rhs),rhsMax =  -8.81517081552374E-13  1.88562879442355E+00
(PID.TID 0000.0001)                    cg2d_init_res =    3.67884399639924E+00
(PID.TID 0000.0001)                       cg2d_iters =    34
(PID.TID 0000.0001)                         cg2d_res =    8.03809640382214E-14
(PID.TID 0000.0001) // =======================================================
(PID.TID 0000.0001) // Begin MONITOR dynamic field statistics
(PID.TID 0000.0001) // =======================================================
(PID.TID 0000.0001) %MON time_tsnumber                =                    12
(PID.TID 0000.0001) %MON time_secondsf                =   1.4400000000000E+04
(PID.TID 0000.0001) %MON dynstat_eta_max              =   4.8306615963932E-01
(PID.TID 0000.0001) %MON dynstat_eta_min              =  -4.8310168698316E-01
(PID.TID 0000.0001) %MON dynstat_eta_mean             =   1.3783501952432E-16
(PID.TID 0000.0001) %MON dynstat_eta_sd               =   2.0779037305983E-01
(PID.TID 0000.0001) %MON dynstat_eta_del2             =   1.5658114238638E-04
(PID.TID 0000.0001) %MON dynstat_uvel_max             =   1.4073774627903E-02
(PID.TID 0000.0001) %MON dynstat_uvel_min             =  -1.4073774627903E-02
(PID.TID 0000.0001) %MON dynstat_uvel_mean            =   1.2747008701958E-18
(PID.TID 0000.0001) %MON dynstat_uvel_sd              =   5.9445322296938E-03
(PID.TID 0000.0001) %MON dynstat_uvel_del2            =   3.2946970557885E-06
(PID.TID 0000.0001) %MON dynstat_vvel_max             =   1.4074348696356E-02
(PID.TID 0000.0001) %MON dynstat_vvel_min             =  -1.4074348696356E-02
(PID.TID 0000.0001) %MON dynstat_vvel_mean            =   1.4163343002175E-19
(PID.TID 0000.0001) %MON dynstat_vvel_sd              =   5.9447363954173E-03
(PID.TID 0000.0001) %MON dynstat_vvel_del2            =   3.2951381806592E-06
(PID.TID 0000.0001) %MON dynstat_wvel_max             =   6.1150389913188E-05
(PID.TID 0000.0001) %MON dynstat_wvel_min             =  -6.1144254949616E-05
(PID.TID 0000.0001) %MON dynstat_wvel_mean            =  -1.0446455314354E-21
(PID.TID 0000.0001) %MON dynstat_wvel_sd              =   1.7277972023664E-05
(PID.TID 0000.0001) %MON dynstat_wvel_del2            =   8.0413264497321E-09
(PID.TID 0000.0001) %MON dynstat_theta_max            =   1.9998110882176E+01
(PID.TID 0000.0001) %MON dynstat_theta_min            =   6.0008940291793E+00
(PID.TID 0000.0001) %MON dynstat_theta_mean           =   1.1000000092171E+01
(PID.TID 0000.0001) %MON dynstat_theta_sd             =   5.3822788496489E+00
(PID.TID 0000.0001) %MON dynstat_theta_del2           =   4.8360261735761E-07
(PID.TID 0000.0001) %MON dynstat_salt_max             =   1.0000000000000E+01
(PID.TID 0000.0001) %MON dynstat_salt_min             =   1.0000000000000E+01
(PID.TID 0000.0001) %MON dynstat_salt_mean            =   1.0000000000000E+01
(PID.TID 0000.0001) %MON dynstat_salt_sd              =   0.0000000000000E+00
(PID.TID 0000.0001) %MON dynstat_salt_del2            =   0.0000000000000E+00
(PID.TID 0000.0001) %MON advcfl_uvel_max              =   1.6888529553484E-04
(PID.TID 0000.0001) %MON advcfl_vvel_max              =   1.6889218435628E-04
(PID.TID 0000.0001) %MON advcfl_wvel_max              =   2.9352187158330E-04
(PID.TID 0000.0001) %MON advcfl_W_hf_max              =   1.1032377871534E-04
(PID.TID 0000.0001) %MON pe_b_mean                    =  -1.1258096816053E-04
(PID.TID 0000.0001) %MON ke_max                       =   9.9360633361594E-05
(PID.TID 0000.0001) %MON ke_mean                      =   3.4598534433140E-05
(PID.TID 0000.0001) %MON ke_vol                       =   5.6340000000000E+16
(PID.TID 0000.0001) %MON vort_r_min                   =  -7.3497687086098E-08
(PID.TID 0000.0001) %MON vort_r_max                   =   7.3509261182917E-08
(PID.TID 0000.0001) %MON vort_a_mean                  =   1.0000000000000E-04
(PID.TID 0000.0001) %MON vort_a_sd                    =   1.4001651231508E-08
(PID.TID 0000.0001) %MON vort_p_mean                  =   1.0398839738941E-04
(PID.TID 0000.0001) %MON vort_p_sd                    =   3.0798701220423E-05
(PID.TID 0000.0001) %MON surfExpan_theta_mean         =   4.2569302282132E-08
(PID.TID 0000.0001) %MON surfExpan_salt_mean          =   2.1687881041809E-20
(PID.TID 0000.0001) // =======================================================
(PID.TID 0000.0001) // End MONITOR dynamic field statistics
(PID.TID 0000.0001) // =======================================================
 cg2d: Sum(rhs),rhsMax =  -9.41247080277208E-13  1.61634358387262E+00
(PID.TID 0000.0001)                    cg2d_init_res =    3.94668033592971E+00
(PID.TID 0000.0001)                       cg2d_iters =    34
(PID.TID 0000.0001)                         cg2d_res =    8.58771808808107E-14
(PID.TID 0000.0001) // =======================================================
(PID.TID 0000.0001) // Begin MONITOR dynamic field statistics
(PID.TID 0000.0001) // =======================================================
(PID.TID 0000.0001) %MON time_tsnumber                =                    13
(PID.TID 0000.0001) %MON time_secondsf                =   1.5600000000000E+04
(PID.TID 0000.0001) %MON dynstat_eta_max              =   4.1604639522632E-01
(PID.TID 0000.0001) %MON dynstat_eta_min              =  -4.1607174709174E-01
(PID.TID 0000.0001) %MON dynstat_eta_mean             =   1.4161369586439E-16
(PID.TID 0000.0001) %MON dynstat_eta_sd               =   1.7988931918926E-01
(PID.TID 0000.0001) %MON dynstat_eta_del2             =   1.3222243821456E-04
(PID.TID 0000.0001) %MON dynstat_uvel_max             =   1.3168361760444E-02
(PID.TID 0000.0001) %MON dynstat_uvel_min             =  -1.3168361760444E-02
(PID.TID 0000.0001) %MON dynstat_uvel_mean            =  -8.4980058013053E-19
(PID.TID 0000.0001) %MON dynstat_uvel_sd              =   5.3830682344942E-03
(PID.TID 0000.0001) %MON dynstat_uvel_del2            =   2.8898270125949E-06
(PID.TID 0000.0001) %MON dynstat_vvel_max             =   1.3168853638028E-02
(PID.TID 0000.0001) %MON dynstat_vvel_min             =  -1.3168853638028E-02
(PID.TID 0000.0001) %MON dynstat_vvel_mean            =   2.2661348803481E-18
(PID.TID 0000.0001) %MON dynstat_vvel_sd              =   5.3833111175022E-03
(PID.TID 0000.0001) %MON dynstat_vvel_del2            =   2.8903136047647E-06
(PID.TID 0000.0001) %MON dynstat_wvel_max             =   5.7619132448796E-05
(PID.TID 0000.0001) %MON dynstat_wvel_min             =  -5.7609474062440E-05
(PID.TID 0000.0001) %MON dynstat_wvel_mean            =   1.5476230095340E-22
(PID.TID 0000.0001) %MON dynstat_wvel_sd              =   1.5893993021838E-05
(PID.TID 0000.0001) %MON dynstat_wvel_del2            =   7.4169895899206E-09
(PID.TID 0000.0001) %MON dynstat_theta_max            =   1.9997053217958E+01
(PID.TID 0000.0001) %MON dynstat_theta_min            =   6.0010285626278E+00
(PID.TID 0000.0001) %MON dynstat_theta_mean           =   1.1000000067978E+01
(PID.TID 0000.0001) %MON dynstat_theta_sd             =   5.3820384638739E+00
(PID.TID 0000.0001) %MON dynstat_theta_del2           =   4.0415703336209E-07
(PID.TID 0000.0001) %MON dynstat_salt_max             =   1.0000000000000E+01
(PID.TID 0000.0001) %MON dynstat_salt_min             =   1.0000000000000E+01
(PID.TID 0000.0001) %MON dynstat_salt_mean            =   1.0000000000000E+01
(PID.TID 0000.0001) %MON dynstat_salt_sd              =   0.0000000000000E+00
(PID.TID 0000.0001) %MON dynstat_salt_del2            =   0.0000000000000E+00
(PID.TID 0000.0001) %MON advcfl_uvel_max              =   1.5802034112532E-04
(PID.TID 0000.0001) %MON advcfl_vvel_max              =   1.5802624365634E-04
(PID.TID 0000.0001) %MON advcfl_wvel_max              =   2.7657183575422E-04
(PID.TID 0000.0001) %MON advcfl_W_hf_max              =   1.0396537506247E-04
(PID.TID 0000.0001) %MON pe_b_mean                    =  -1.0917606711382E-04
(PID.TID 0000.0001) %MON ke_max                       =   8.6609127396711E-05
(PID.TID 0000.0001) %MON ke_mean                      =   2.8371792822419E-05
(PID.TID 0000.0001) %MON ke_vol                       =   5.6340000000000E+16
(PID.TID 0000.0001) %MON vort_r_min                   =  -6.3567981094460E-08
(PID.TID 0000.0001) %MON vort_r_max                   =   6.3579956065273E-08
(PID.TID 0000.0001) %MON vort_a_mean                  =   1.0000000000000E-04
(PID.TID 0000.0001) %MON vort_a_sd                    =   1.2034581328426E-08
(PID.TID 0000.0001) %MON vort_p_mean                  =   1.0398839738941E-04
(PID.TID 0000.0001) %MON vort_p_sd                    =   3.0798699924377E-05
(PID.TID 0000.0001) %MON surfExpan_theta_mean         =   3.2842171215213E-08
(PID.TID 0000.0001) %MON surfExpan_salt_mean          =   2.2216853750146E-20
(PID.TID 0000.0001) // =======================================================
(PID.TID 0000.0001) // End MONITOR dynamic field statistics
(PID.TID 0000.0001) // =======================================================
 cg2d: Sum(rhs),rhsMax =  -9.80548975348938E-13  1.40707676160857E+00
(PID.TID 0000.0001)                    cg2d_init_res =    3.58162450045841E+00
(PID.TID 0000.0001)                       cg2d_iters =    34
(PID.TID 0000.0001)                         cg2d_res =    7.96696341596914E-14
(PID.TID 0000.0001) // =======================================================
(PID.TID 0000.0001) // Begin MONITOR dynamic field statistics
(PID.TID 0000.0001) // =======================================================
(PID.TID 0000.0001) %MON time_tsnumber                =                    14
(PID.TID 0000.0001) %MON time_secondsf                =   1.6800000000000E+04
(PID.TID 0000.0001) %MON dynstat_eta_max              =   3.6345633341473E-01
(PID.TID 0000.0001) %MON dynstat_eta_min              =  -3.6347093219148E-01
(PID.TID 0000.0001) %MON dynstat_eta_mean             =   1.2896033013845E-16
(PID.TID 0000.0001) %MON dynstat_eta_sd               =   1.5844283739135E-01
(PID.TID 0000.0001) %MON dynstat_eta_del2             =   1.1355551135155E-04
(PID.TID 0000.0001) %MON dynstat_uvel_max             =   1.1510049427868E-02
(PID.TID 0000.0001) %MON dynstat_uvel_min             =  -1.1510049427868E-02
(PID.TID 0000.0001) %MON dynstat_uvel_mean            =   2.1953181653372E-18
(PID.TID 0000.0001) %MON dynstat_uvel_sd              =   4.5112574267645E-03
(PID.TID 0000.0001) %MON dynstat_uvel_del2            =   2.2684128485456E-06
(PID.TID 0000.0001) %MON dynstat_vvel_max             =   1.1510483360452E-02
(PID.TID 0000.0001) %MON dynstat_vvel_min             =  -1.1510483360452E-02
(PID.TID 0000.0001) %MON dynstat_vvel_mean            =   1.1330674401740E-18
(PID.TID 0000.0001) %MON dynstat_vvel_sd              =   4.5115199861277E-03
(PID.TID 0000.0001) %MON dynstat_vvel_del2            =   2.2688944887614E-06
(PID.TID 0000.0001) %MON dynstat_wvel_max             =   4.6329287011851E-05
(PID.TID 0000.0001) %MON dynstat_wvel_min             =  -4.6319683928219E-05
(PID.TID 0000.0001) %MON dynstat_wvel_mean            =   5.4166805333688E-22
(PID.TID 0000.0001) %MON dynstat_wvel_sd              =   1.2570104791019E-05
(PID.TID 0000.0001) %MON dynstat_wvel_del2            =   5.8685695457740E-09
(PID.TID 0000.0001) %MON dynstat_theta_max            =   1.9996098169261E+01
(PID.TID 0000.0001) %MON dynstat_theta_min            =   6.0011562514880E+00
(PID.TID 0000.0001) %MON dynstat_theta_mean           =   1.1000000051774E+01
(PID.TID 0000.0001) %MON dynstat_theta_sd             =   5.3817981153797E+00
(PID.TID 0000.0001) %MON dynstat_theta_del2           =   3.3908667719416E-07
(PID.TID 0000.0001) %MON dynstat_salt_max             =   1.0000000000000E+01
(PID.TID 0000.0001) %MON dynstat_salt_min             =   1.0000000000000E+01
(PID.TID 0000.0001) %MON dynstat_salt_mean            =   1.0000000000000E+01
(PID.TID 0000.0001) %MON dynstat_salt_sd              =   0.0000000000000E+00
(PID.TID 0000.0001) %MON dynstat_salt_del2            =   0.0000000000000E+00
(PID.TID 0000.0001) %MON advcfl_uvel_max              =   1.3812059313442E-04
(PID.TID 0000.0001) %MON advcfl_vvel_max              =   1.3812580032542E-04
(PID.TID 0000.0001) %MON advcfl_wvel_max              =   2.2238057765688E-04
(PID.TID 0000.0001) %MON advcfl_W_hf_max              =   8.3638908872682E-05
(PID.TID 0000.0001) %MON pe_b_mean                    =  -1.0334161054435E-04
(PID.TID 0000.0001) %MON ke_max                       =   6.6740546323264E-05
(PID.TID 0000.0001) %MON ke_mean                      =   1.9926357202273E-05
(PID.TID 0000.0001) %MON ke_vol                       =   5.6340000000000E+16
(PID.TID 0000.0001) %MON vort_r_min                   =  -4.6929346333092E-08
(PID.TID 0000.0001) %MON vort_r_max                   =   4.6941120424001E-08
(PID.TID 0000.0001) %MON vort_a_mean                  =   1.0000000000000E-04
(PID.TID 0000.0001) %MON vort_a_sd                    =   9.9060094571629E-09
(PID.TID 0000.0001) %MON vort_p_mean                  =   1.0398839738941E-04
(PID.TID 0000.0001) %MON vort_p_sd                    =   3.0798698638798E-05
(PID.TID 0000.0001) %MON surfExpan_theta_mean         =   2.1672964815739E-08
(PID.TID 0000.0001) %MON surfExpan_salt_mean          =  -7.4056179167152E-21
(PID.TID 0000.0001) // =======================================================
(PID.TID 0000.0001) // End MONITOR dynamic field statistics
(PID.TID 0000.0001) // =======================================================
 cg2d: Sum(rhs),rhsMax =  -1.15463194561016E-12  1.27480748221869E+00
(PID.TID 0000.0001)                    cg2d_init_res =    2.52511109819525E+00
(PID.TID 0000.0001)                       cg2d_iters =    34
(PID.TID 0000.0001)                         cg2d_res =    6.05359181637803E-14
(PID.TID 0000.0001) // =======================================================
(PID.TID 0000.0001) // Begin MONITOR dynamic field statistics
(PID.TID 0000.0001) // =======================================================
(PID.TID 0000.0001) %MON time_tsnumber                =                    15
(PID.TID 0000.0001) %MON time_secondsf                =   1.8000000000000E+04
(PID.TID 0000.0001) %MON dynstat_eta_max              =   3.3005901489250E-01
(PID.TID 0000.0001) %MON dynstat_eta_min              =  -3.3006529058423E-01
(PID.TID 0000.0001) %MON dynstat_eta_mean             =   1.0982428115016E-16
(PID.TID 0000.0001) %MON dynstat_eta_sd               =   1.4528540840117E-01
(PID.TID 0000.0001) %MON dynstat_eta_del2             =   1.0221169728217E-04
(PID.TID 0000.0001) %MON dynstat_uvel_max             =   9.4005283870349E-03
(PID.TID 0000.0001) %MON dynstat_uvel_min             =  -9.4005283870349E-03
(PID.TID 0000.0001) %MON dynstat_uvel_mean            =  -3.5408357505439E-19
(PID.TID 0000.0001) %MON dynstat_uvel_sd              =   3.5660498905319E-03
(PID.TID 0000.0001) %MON dynstat_uvel_del2            =   1.5641308830478E-06
(PID.TID 0000.0001) %MON dynstat_vvel_max             =   9.4008299722113E-03
(PID.TID 0000.0001) %MON dynstat_vvel_min             =  -9.4008299722113E-03
(PID.TID 0000.0001) %MON dynstat_vvel_mean            =  -2.1245014503263E-19
(PID.TID 0000.0001) %MON dynstat_vvel_sd              =   3.5662991524693E-03
(PID.TID 0000.0001) %MON dynstat_vvel_del2            =   1.5645442973474E-06
(PID.TID 0000.0001) %MON dynstat_wvel_max             =   2.9820964907966E-05
(PID.TID 0000.0001) %MON dynstat_wvel_min             =  -2.9814035801056E-05
(PID.TID 0000.0001) %MON dynstat_wvel_mean            =  -2.3214345143009E-21
(PID.TID 0000.0001) %MON dynstat_wvel_sd              =   8.0582176395427E-06
(PID.TID 0000.0001) %MON dynstat_wvel_del2            =   3.7338520387493E-09
(PID.TID 0000.0001) %MON dynstat_theta_max            =   1.9995285112186E+01
(PID.TID 0000.0001) %MON dynstat_theta_min            =   6.0012744660721E+00
(PID.TID 0000.0001) %MON dynstat_theta_mean           =   1.1000000042791E+01
(PID.TID 0000.0001) %MON dynstat_theta_sd             =   5.3815578037261E+00
(PID.TID 0000.0001) %MON dynstat_theta_del2           =   2.9541896413249E-07
(PID.TID 0000.0001) %MON dynstat_salt_max             =   1.0000000000000E+01
(PID.TID 0000.0001) %MON dynstat_salt_min             =   1.0000000000000E+01
(PID.TID 0000.0001) %MON dynstat_salt_mean            =   1.0000000000000E+01
(PID.TID 0000.0001) %MON dynstat_salt_sd              =   0.0000000000000E+00
(PID.TID 0000.0001) %MON dynstat_salt_del2            =   0.0000000000000E+00
(PID.TID 0000.0001) %MON advcfl_uvel_max              =   1.1280634064442E-04
(PID.TID 0000.0001) %MON advcfl_vvel_max              =   1.1280995966654E-04
(PID.TID 0000.0001) %MON advcfl_wvel_max              =   1.4314063155824E-04
(PID.TID 0000.0001) %MON advcfl_W_hf_max              =   5.3911729400650E-05
(PID.TID 0000.0001) %MON pe_b_mean                    =  -9.8233551019499E-05
(PID.TID 0000.0001) %MON ke_max                       =   4.6975622123776E-05
(PID.TID 0000.0001) %MON ke_mean                      =   1.2451239908602E-05
(PID.TID 0000.0001) %MON ke_vol                       =   5.6340000000000E+16
(PID.TID 0000.0001) %MON vort_r_min                   =  -3.0522926737378E-08
(PID.TID 0000.0001) %MON vort_r_max                   =   3.0515504609260E-08
(PID.TID 0000.0001) %MON vort_a_mean                  =   1.0000000000000E-04
(PID.TID 0000.0001) %MON vort_a_sd                    =   8.0493112308979E-09
(PID.TID 0000.0001) %MON vort_p_mean                  =   1.0398839738941E-04
(PID.TID 0000.0001) %MON vort_p_sd                    =   3.0798697679703E-05
(PID.TID 0000.0001) %MON surfExpan_theta_mean         =   1.1801747272086E-08
(PID.TID 0000.0001) %MON surfExpan_salt_mean          =   1.6927126666778E-20
(PID.TID 0000.0001) // =======================================================
(PID.TID 0000.0001) // End MONITOR dynamic field statistics
(PID.TID 0000.0001) // =======================================================
 cg2d: Sum(rhs),rhsMax =  -8.84625706021325E-13  1.22711777913917E+00
(PID.TID 0000.0001)                    cg2d_init_res =    1.09932897986111E+00
(PID.TID 0000.0001)                       cg2d_iters =    34
(PID.TID 0000.0001)                         cg2d_res =    3.49717631234288E-14
(PID.TID 0000.0001) // =======================================================
(PID.TID 0000.0001) // Begin MONITOR dynamic field statistics
(PID.TID 0000.0001) // =======================================================
(PID.TID 0000.0001) %MON time_tsnumber                =                    16
(PID.TID 0000.0001) %MON time_secondsf                =   1.9200000000000E+04
(PID.TID 0000.0001) %MON dynstat_eta_max              =   3.1782754084759E-01
(PID.TID 0000.0001) %MON dynstat_eta_min              =  -3.1782873181848E-01
(PID.TID 0000.0001) %MON dynstat_eta_mean             =   8.2090876819311E-17
(PID.TID 0000.0001) %MON dynstat_eta_sd               =   1.4071042814973E-01
(PID.TID 0000.0001) %MON dynstat_eta_del2             =   9.8372837158210E-05
(PID.TID 0000.0001) %MON dynstat_uvel_max             =   7.2053001658419E-03
(PID.TID 0000.0001) %MON dynstat_uvel_min             =  -7.2053001658419E-03
(PID.TID 0000.0001) %MON dynstat_uvel_mean            =  -2.1245014503263E-18
(PID.TID 0000.0001) %MON dynstat_uvel_sd              =   2.9052851628910E-03
(PID.TID 0000.0001) %MON dynstat_uvel_del2            =   1.0284826930834E-06
(PID.TID 0000.0001) %MON dynstat_vvel_max             =   7.2055004298246E-03
(PID.TID 0000.0001) %MON dynstat_vvel_min             =  -7.2055004298246E-03
(PID.TID 0000.0001) %MON dynstat_vvel_mean            =  -2.1245014503263E-19
(PID.TID 0000.0001) %MON dynstat_vvel_sd              =   2.9054590003749E-03
(PID.TID 0000.0001) %MON dynstat_vvel_del2            =   1.0286684652414E-06
(PID.TID 0000.0001) %MON dynstat_wvel_max             =   1.1486734002000E-05
(PID.TID 0000.0001) %MON dynstat_wvel_min             =  -1.1483414117878E-05
(PID.TID 0000.0001) %MON dynstat_wvel_mean            =   1.6250041600106E-21
(PID.TID 0000.0001) %MON dynstat_wvel_sd              =   3.4491274314091E-06
(PID.TID 0000.0001) %MON dynstat_wvel_del2            =   1.4849463740438E-09
(PID.TID 0000.0001) %MON dynstat_theta_max            =   1.9994640687529E+01
(PID.TID 0000.0001) %MON dynstat_theta_min            =   6.0013814269656E+00
(PID.TID 0000.0001) %MON dynstat_theta_mean           =   1.1000000039264E+01
(PID.TID 0000.0001) %MON dynstat_theta_sd             =   5.3813175268046E+00
(PID.TID 0000.0001) %MON dynstat_theta_del2           =   2.7533900996001E-07
(PID.TID 0000.0001) %MON dynstat_salt_max             =   1.0000000000000E+01
(PID.TID 0000.0001) %MON dynstat_salt_min             =   1.0000000000000E+01
(PID.TID 0000.0001) %MON dynstat_salt_mean            =   1.0000000000000E+01
(PID.TID 0000.0001) %MON dynstat_salt_sd              =   0.0000000000000E+00
(PID.TID 0000.0001) %MON dynstat_salt_del2            =   0.0000000000000E+00
(PID.TID 0000.0001) %MON advcfl_uvel_max              =   8.6463601990103E-05
(PID.TID 0000.0001) %MON advcfl_vvel_max              =   8.6466005157896E-05
(PID.TID 0000.0001) %MON advcfl_wvel_max              =   5.5136323209598E-05
(PID.TID 0000.0001) %MON advcfl_W_hf_max              =   2.0879890635374E-05
(PID.TID 0000.0001) %MON pe_b_mean                    =  -9.6136465461322E-05
(PID.TID 0000.0001) %MON ke_max                       =   3.3502191909604E-05
(PID.TID 0000.0001) %MON ke_mean                      =   8.2643924676292E-06
(PID.TID 0000.0001) %MON ke_vol                       =   5.6340000000000E+16
(PID.TID 0000.0001) %MON vort_r_min                   =  -1.5658712311428E-08
(PID.TID 0000.0001) %MON vort_r_max                   =   1.5661495552821E-08
(PID.TID 0000.0001) %MON vort_a_mean                  =   1.0000000000000E-04
(PID.TID 0000.0001) %MON vort_a_sd                    =   7.0067749252977E-09
(PID.TID 0000.0001) %MON vort_p_mean                  =   1.0398839738941E-04
(PID.TID 0000.0001) %MON vort_p_sd                    =   3.0798697228334E-05
(PID.TID 0000.0001) %MON surfExpan_theta_mean         =   3.8607371940696E-09
(PID.TID 0000.0001) %MON surfExpan_salt_mean          =  -1.3753290416757E-20
(PID.TID 0000.0001) // =======================================================
(PID.TID 0000.0001) // End MONITOR dynamic field statistics
(PID.TID 0000.0001) // =======================================================
 cg2d: Sum(rhs),rhsMax =  -5.40012479177676E-13  1.25855719792552E+00
(PID.TID 0000.0001)                    cg2d_init_res =    9.48250556908739E-01
(PID.TID 0000.0001)                       cg2d_iters =    33
(PID.TID 0000.0001)                         cg2d_res =    8.89728119796753E-14
(PID.TID 0000.0001) // =======================================================
(PID.TID 0000.0001) // Begin MONITOR dynamic field statistics
(PID.TID 0000.0001) // =======================================================
(PID.TID 0000.0001) %MON time_tsnumber                =                    17
(PID.TID 0000.0001) %MON time_secondsf                =   2.0400000000000E+04
(PID.TID 0000.0001) %MON dynstat_eta_max              =   3.2546166703096E-01
(PID.TID 0000.0001) %MON dynstat_eta_min              =  -3.2546044045459E-01
(PID.TID 0000.0001) %MON dynstat_eta_mean             =   3.9936102236422E-17
(PID.TID 0000.0001) %MON dynstat_eta_sd               =   1.4399100967285E-01
(PID.TID 0000.0001) %MON dynstat_eta_del2             =   1.0134105137206E-04
(PID.TID 0000.0001) %MON dynstat_uvel_max             =   5.8473437764246E-03
(PID.TID 0000.0001) %MON dynstat_uvel_min             =  -5.8473437764246E-03
(PID.TID 0000.0001) %MON dynstat_uvel_mean            =  -2.8326686004351E-19
(PID.TID 0000.0001) %MON dynstat_uvel_sd              =   2.8418731178243E-03
(PID.TID 0000.0001) %MON dynstat_uvel_del2            =   1.0509372594289E-06
(PID.TID 0000.0001) %MON dynstat_vvel_max             =   5.8480168140369E-03
(PID.TID 0000.0001) %MON dynstat_vvel_min             =  -5.8480168140369E-03
(PID.TID 0000.0001) %MON dynstat_vvel_mean            =   8.4980058013053E-19
(PID.TID 0000.0001) %MON dynstat_vvel_sd              =   2.8419169470771E-03
(PID.TID 0000.0001) %MON dynstat_vvel_del2            =   1.0507311224346E-06
(PID.TID 0000.0001) %MON dynstat_wvel_max             =   9.5282893662590E-06
(PID.TID 0000.0001) %MON dynstat_wvel_min             =  -9.5329237452518E-06
(PID.TID 0000.0001) %MON dynstat_wvel_mean            =  -8.8988323048202E-22
(PID.TID 0000.0001) %MON dynstat_wvel_sd              =   3.0211805679210E-06
(PID.TID 0000.0001) %MON dynstat_wvel_del2            =   1.3140259379309E-09
(PID.TID 0000.0001) %MON dynstat_theta_max            =   1.9994163828018E+01
(PID.TID 0000.0001) %MON dynstat_theta_min            =   6.0014771938213E+00
(PID.TID 0000.0001) %MON dynstat_theta_mean           =   1.1000000039806E+01
(PID.TID 0000.0001) %MON dynstat_theta_sd             =   5.3810772827139E+00
(PID.TID 0000.0001) %MON dynstat_theta_del2           =   2.7744150810308E-07
(PID.TID 0000.0001) %MON dynstat_salt_max             =   1.0000000000000E+01
(PID.TID 0000.0001) %MON dynstat_salt_min             =   1.0000000000000E+01
(PID.TID 0000.0001) %MON dynstat_salt_mean            =   1.0000000000000E+01
(PID.TID 0000.0001) %MON dynstat_salt_sd              =   0.0000000000000E+00
(PID.TID 0000.0001) %MON dynstat_salt_del2            =   0.0000000000000E+00
(PID.TID 0000.0001) %MON advcfl_uvel_max              =   7.0168125317095E-05
(PID.TID 0000.0001) %MON advcfl_vvel_max              =   7.0176201768443E-05
(PID.TID 0000.0001) %MON advcfl_wvel_max              =   4.5758033977208E-05
(PID.TID 0000.0001) %MON advcfl_W_hf_max              =   1.6913992653646E-05
(PID.TID 0000.0001) %MON pe_b_mean                    =  -9.7568927413621E-05
(PID.TID 0000.0001) %MON ke_max                       =   2.9459427868803E-05
(PID.TID 0000.0001) %MON ke_mean                      =   7.9072137816349E-06
(PID.TID 0000.0001) %MON ke_vol                       =   5.6340000000000E+16
(PID.TID 0000.0001) %MON vort_r_min                   =  -2.7684509211511E-08
(PID.TID 0000.0001) %MON vort_r_max                   =   2.7692242550143E-08
(PID.TID 0000.0001) %MON vort_a_mean                  =   1.0000000000000E-04
(PID.TID 0000.0001) %MON vort_a_sd                    =   7.1102211059104E-09
(PID.TID 0000.0001) %MON vort_p_mean                  =   1.0398839738941E-04
(PID.TID 0000.0001) %MON vort_p_sd                    =   3.0798697298811E-05
(PID.TID 0000.0001) %MON surfExpan_theta_mean         =  -2.7794185937615E-09
(PID.TID 0000.0001) %MON surfExpan_salt_mean          =  -4.2317816666944E-21
(PID.TID 0000.0001) // =======================================================
(PID.TID 0000.0001) // End MONITOR dynamic field statistics
(PID.TID 0000.0001) // =======================================================
 cg2d: Sum(rhs),rhsMax =  -2.52242671194836E-13  1.35334741422976E+00
(PID.TID 0000.0001)                    cg2d_init_res =    1.88359014315215E+00
(PID.TID 0000.0001)                       cg2d_iters =    34
(PID.TID 0000.0001)                         cg2d_res =    4.26329917410124E-14
(PID.TID 0000.0001) // =======================================================
(PID.TID 0000.0001) // Begin MONITOR dynamic field statistics
(PID.TID 0000.0001) // =======================================================
(PID.TID 0000.0001) %MON time_tsnumber                =                    18
(PID.TID 0000.0001) %MON time_secondsf                =   2.1600000000000E+04
(PID.TID 0000.0001) %MON dynstat_eta_max              =   3.4904232831908E-01
(PID.TID 0000.0001) %MON dynstat_eta_min              =  -3.4904026811510E-01
(PID.TID 0000.0001) %MON dynstat_eta_mean             =   4.4373446929357E-18
(PID.TID 0000.0001) %MON dynstat_eta_sd               =   1.5375184705661E-01
(PID.TID 0000.0001) %MON dynstat_eta_del2             =   1.0996902798602E-04
(PID.TID 0000.0001) %MON dynstat_uvel_max             =   7.3013908920904E-03
(PID.TID 0000.0001) %MON dynstat_uvel_min             =  -7.3013908920904E-03
(PID.TID 0000.0001) %MON dynstat_uvel_mean            =  -1.0622507251632E-18
(PID.TID 0000.0001) %MON dynstat_uvel_sd              =   3.2417251078686E-03
(PID.TID 0000.0001) %MON dynstat_uvel_del2            =   1.4571701199566E-06
(PID.TID 0000.0001) %MON dynstat_vvel_max             =   7.3018715298145E-03
(PID.TID 0000.0001) %MON dynstat_vvel_min             =  -7.3018715298146E-03
(PID.TID 0000.0001) %MON dynstat_vvel_mean            =   6.0194207759246E-19
(PID.TID 0000.0001) %MON dynstat_vvel_sd              =   3.2416692513815E-03
(PID.TID 0000.0001) %MON dynstat_vvel_del2            =   1.4567833389822E-06
(PID.TID 0000.0001) %MON dynstat_wvel_max             =   2.1123690850417E-05
(PID.TID 0000.0001) %MON dynstat_wvel_min             =  -2.1123578988487E-05
(PID.TID 0000.0001) %MON dynstat_wvel_mean            =   5.0297747809853E-22
(PID.TID 0000.0001) %MON dynstat_wvel_sd              =   6.3380141106784E-06
(PID.TID 0000.0001) %MON dynstat_wvel_del2            =   2.9866566739429E-09
(PID.TID 0000.0001) %MON dynstat_theta_max            =   1.9993830059792E+01
(PID.TID 0000.0001) %MON dynstat_theta_min            =   6.0015634232099E+00
(PID.TID 0000.0001) %MON dynstat_theta_mean           =   1.1000000043864E+01
(PID.TID 0000.0001) %MON dynstat_theta_sd             =   5.3808370704056E+00
(PID.TID 0000.0001) %MON dynstat_theta_del2           =   2.9865619336454E-07
(PID.TID 0000.0001) %MON dynstat_salt_max             =   1.0000000000000E+01
(PID.TID 0000.0001) %MON dynstat_salt_min             =   1.0000000000000E+01
(PID.TID 0000.0001) %MON dynstat_salt_mean            =   1.0000000000000E+01
(PID.TID 0000.0001) %MON dynstat_salt_sd              =   0.0000000000000E+00
(PID.TID 0000.0001) %MON dynstat_salt_del2            =   0.0000000000000E+00
(PID.TID 0000.0001) %MON advcfl_uvel_max              =   8.7616690705085E-05
(PID.TID 0000.0001) %MON advcfl_vvel_max              =   8.7622458357775E-05
(PID.TID 0000.0001) %MON advcfl_wvel_max              =   1.0139371608200E-04
(PID.TID 0000.0001) %MON advcfl_W_hf_max              =   3.7852683645403E-05
(PID.TID 0000.0001) %MON pe_b_mean                    =  -1.0143406674965E-04
(PID.TID 0000.0001) %MON ke_max                       =   3.3204244714410E-05
(PID.TID 0000.0001) %MON ke_mean                      =   1.0288505668816E-05
(PID.TID 0000.0001) %MON ke_vol                       =   5.6340000000000E+16
(PID.TID 0000.0001) %MON vort_r_min                   =  -4.0743217558100E-08
(PID.TID 0000.0001) %MON vort_r_max                   =   4.0754856710050E-08
(PID.TID 0000.0001) %MON vort_a_mean                  =   1.0000000000000E-04
(PID.TID 0000.0001) %MON vort_a_sd                    =   8.0700942432108E-09
(PID.TID 0000.0001) %MON vort_p_mean                  =   1.0398839738941E-04
(PID.TID 0000.0001) %MON vort_p_sd                    =   3.0798697768138E-05
(PID.TID 0000.0001) %MON surfExpan_theta_mean         =  -8.8003750297504E-09
(PID.TID 0000.0001) %MON surfExpan_salt_mean          =  -3.7028089583576E-21
(PID.TID 0000.0001) // =======================================================
(PID.TID 0000.0001) // End MONITOR dynamic field statistics
(PID.TID 0000.0001) // =======================================================
 cg2d: Sum(rhs),rhsMax =   1.56319401867222E-13  1.48904413874190E+00
(PID.TID 0000.0001)                    cg2d_init_res =    2.36473818877497E+00
(PID.TID 0000.0001)                       cg2d_iters =    34
(PID.TID 0000.0001)                         cg2d_res =    5.22850475301668E-14
(PID.TID 0000.0001) // =======================================================
(PID.TID 0000.0001) // Begin MONITOR dynamic field statistics
(PID.TID 0000.0001) // =======================================================
(PID.TID 0000.0001) %MON time_tsnumber                =                    19
(PID.TID 0000.0001) %MON time_secondsf                =   2.2800000000000E+04
(PID.TID 0000.0001) %MON dynstat_eta_max              =   3.8293971054862E-01
(PID.TID 0000.0001) %MON dynstat_eta_min              =  -3.8293758414706E-01
(PID.TID 0000.0001) %MON dynstat_eta_mean             =  -2.1077387291445E-17
(PID.TID 0000.0001) %MON dynstat_eta_sd               =   1.6800951524121E-01
(PID.TID 0000.0001) %MON dynstat_eta_del2             =   1.2261367500881E-04
(PID.TID 0000.0001) %MON dynstat_uvel_max             =   8.3805676546656E-03
(PID.TID 0000.0001) %MON dynstat_uvel_min             =  -8.3805676546655E-03
(PID.TID 0000.0001) %MON dynstat_uvel_mean            =  -3.5408357505439E-19
(PID.TID 0000.0001) %MON dynstat_uvel_sd              =   3.7218972127696E-03
(PID.TID 0000.0001) %MON dynstat_uvel_del2            =   1.8433480322090E-06
(PID.TID 0000.0001) %MON dynstat_vvel_max             =   8.3808262569123E-03
(PID.TID 0000.0001) %MON dynstat_vvel_min             =  -8.3808262569123E-03
(PID.TID 0000.0001) %MON dynstat_vvel_mean            =   1.6641928027556E-18
(PID.TID 0000.0001) %MON dynstat_vvel_sd              =   3.7217963014142E-03
(PID.TID 0000.0001) %MON dynstat_vvel_del2            =   1.8428924640085E-06
(PID.TID 0000.0001) %MON dynstat_wvel_max             =   3.0324637398566E-05
(PID.TID 0000.0001) %MON dynstat_wvel_min             =  -3.0324525514970E-05
(PID.TID 0000.0001) %MON dynstat_wvel_mean            =   3.8690575238349E-23
(PID.TID 0000.0001) %MON dynstat_wvel_sd              =   8.7440871281440E-06
(PID.TID 0000.0001) %MON dynstat_wvel_del2            =   4.1597602958026E-09
(PID.TID 0000.0001) %MON dynstat_theta_max            =   1.9993598238833E+01
(PID.TID 0000.0001) %MON dynstat_theta_min            =   6.0016428320790E+00
(PID.TID 0000.0001) %MON dynstat_theta_mean           =   1.1000000051312E+01
(PID.TID 0000.0001) %MON dynstat_theta_sd             =   5.3805968891945E+00
(PID.TID 0000.0001) %MON dynstat_theta_del2           =   3.3456452571597E-07
(PID.TID 0000.0001) %MON dynstat_salt_max             =   1.0000000000000E+01
(PID.TID 0000.0001) %MON dynstat_salt_min             =   1.0000000000000E+01
(PID.TID 0000.0001) %MON dynstat_salt_mean            =   1.0000000000000E+01
(PID.TID 0000.0001) %MON dynstat_salt_sd              =   0.0000000000000E+00
(PID.TID 0000.0001) %MON dynstat_salt_del2            =   0.0000000000000E+00
(PID.TID 0000.0001) %MON advcfl_uvel_max              =   1.0056681185599E-04
(PID.TID 0000.0001) %MON advcfl_vvel_max              =   1.0056991508295E-04
(PID.TID 0000.0001) %MON advcfl_wvel_max              =   1.4555825951312E-04
(PID.TID 0000.0001) %MON advcfl_W_hf_max              =   5.4437042111594E-05
(PID.TID 0000.0001) %MON pe_b_mean                    =  -1.0589916337322E-04
(PID.TID 0000.0001) %MON ke_max                       =   3.9059332212742E-05
(PID.TID 0000.0001) %MON ke_mean                      =   1.3562020299004E-05
(PID.TID 0000.0001) %MON ke_vol                       =   5.6340000000000E+16
(PID.TID 0000.0001) %MON vort_r_min                   =  -5.3188686413246E-08
(PID.TID 0000.0001) %MON vort_r_max                   =   5.3201395087628E-08
(PID.TID 0000.0001) %MON vort_a_mean                  =   1.0000000000000E-04
(PID.TID 0000.0001) %MON vort_a_sd                    =   9.3298795669097E-09
(PID.TID 0000.0001) %MON vort_p_mean                  =   1.0398839738941E-04
(PID.TID 0000.0001) %MON vort_p_sd                    =   3.0798698443457E-05
(PID.TID 0000.0001) %MON surfExpan_theta_mean         =  -1.4130228805755E-08
(PID.TID 0000.0001) %MON surfExpan_salt_mean          =   0.0000000000000E+00
(PID.TID 0000.0001) // =======================================================
(PID.TID 0000.0001) // End MONITOR dynamic field statistics
(PID.TID 0000.0001) // =======================================================
 Compute Stats, Diag. #     23  ETAN      vol(   0 ): 2.817E+13  Parms: SM      M1      
 Compute Stats, Diag. #    136  momKE     vol(   0 ): 5.634E+16  Parms: SMR     MR      
 Compute Stats, Diag. #     26  THETA     vol(   0 ): 5.634E+16  Parms: SMR     MR      
 Compute Stats, Diag. #     33  THETASQ   vol(   0 ): 5.634E+16  Parms: SMRP    MR      
 cg2d: Sum(rhs),rhsMax =   8.17124146124115E-14  1.64050024714698E+00
(PID.TID 0000.0001)                    cg2d_init_res =    2.38500013679272E+00
(PID.TID 0000.0001)                       cg2d_iters =    34
(PID.TID 0000.0001)                         cg2d_res =    5.48386082311870E-14
(PID.TID 0000.0001) // =======================================================
(PID.TID 0000.0001) // Begin MONITOR dynamic field statistics
(PID.TID 0000.0001) // =======================================================
(PID.TID 0000.0001) %MON time_tsnumber                =                    20
(PID.TID 0000.0001) %MON time_secondsf                =   2.4000000000000E+04
(PID.TID 0000.0001) %MON dynstat_eta_max              =   4.2082262789268E-01
(PID.TID 0000.0001) %MON dynstat_eta_min              =  -4.2082099181041E-01
(PID.TID 0000.0001) %MON dynstat_eta_mean             =  -5.3248136315229E-17
(PID.TID 0000.0001) %MON dynstat_eta_sd               =   1.8428275687056E-01
(PID.TID 0000.0001) %MON dynstat_eta_del2             =   1.3713744004115E-04
(PID.TID 0000.0001) %MON dynstat_uvel_max             =   8.8960330786273E-03
(PID.TID 0000.0001) %MON dynstat_uvel_min             =  -8.8960330786272E-03
(PID.TID 0000.0001) %MON dynstat_uvel_mean            =   7.7898386511965E-19
(PID.TID 0000.0001) %MON dynstat_uvel_sd              =   4.0596150564920E-03
(PID.TID 0000.0001) %MON dynstat_uvel_del2            =   2.0798662069129E-06
(PID.TID 0000.0001) %MON dynstat_vvel_max             =   8.8962335172046E-03
(PID.TID 0000.0001) %MON dynstat_vvel_min             =  -8.8962335172046E-03
(PID.TID 0000.0001) %MON dynstat_vvel_mean            =   1.4517426577230E-18
(PID.TID 0000.0001) %MON dynstat_vvel_sd              =   4.0595022722980E-03
(PID.TID 0000.0001) %MON dynstat_vvel_del2            =   2.0793752995663E-06
(PID.TID 0000.0001) %MON dynstat_wvel_max             =   3.3833926367718E-05
(PID.TID 0000.0001) %MON dynstat_wvel_min             =  -3.3833655287059E-05
(PID.TID 0000.0001) %MON dynstat_wvel_mean            =  -2.9017931428762E-22
(PID.TID 0000.0001) %MON dynstat_wvel_sd              =   9.7203686948420E-06
(PID.TID 0000.0001) %MON dynstat_wvel_del2            =   4.6311672291746E-09
(PID.TID 0000.0001) %MON dynstat_theta_max            =   1.9993418502846E+01
(PID.TID 0000.0001) %MON dynstat_theta_min            =   6.0017187551509E+00
(PID.TID 0000.0001) %MON dynstat_theta_mean           =   1.1000000061709E+01
(PID.TID 0000.0001) %MON dynstat_theta_sd             =   5.3803567378360E+00
(PID.TID 0000.0001) %MON dynstat_theta_del2           =   3.7904536937249E-07
(PID.TID 0000.0001) %MON dynstat_salt_max             =   1.0000000000000E+01
(PID.TID 0000.0001) %MON dynstat_salt_min             =   1.0000000000000E+01
(PID.TID 0000.0001) %MON dynstat_salt_mean            =   1.0000000000000E+01
(PID.TID 0000.0001) %MON dynstat_salt_sd              =   0.0000000000000E+00
(PID.TID 0000.0001) %MON dynstat_salt_del2            =   0.0000000000000E+00
(PID.TID 0000.0001) %MON advcfl_uvel_max              =   1.0675239694353E-04
(PID.TID 0000.0001) %MON advcfl_vvel_max              =   1.0675480220646E-04
(PID.TID 0000.0001) %MON advcfl_wvel_max              =   1.6240284656504E-04
(PID.TID 0000.0001) %MON advcfl_W_hf_max              =   6.0775464078706E-05
(PID.TID 0000.0001) %MON pe_b_mean                    =  -1.0940229833225E-04
(PID.TID 0000.0001) %MON ke_max                       =   4.2746458132527E-05
(PID.TID 0000.0001) %MON ke_mean                      =   1.6134854686811E-05
(PID.TID 0000.0001) %MON ke_vol                       =   5.6340000000000E+16
(PID.TID 0000.0001) %MON vort_r_min                   =  -6.2212013505276E-08
(PID.TID 0000.0001) %MON vort_r_max                   =   6.2224833878720E-08
(PID.TID 0000.0001) %MON vort_a_mean                  =   1.0000000000000E-04
(PID.TID 0000.0001) %MON vort_a_sd                    =   1.0516558694970E-08
(PID.TID 0000.0001) %MON vort_p_mean                  =   1.0398839738941E-04
(PID.TID 0000.0001) %MON vort_p_sd                    =   3.0798699133634E-05
(PID.TID 0000.0001) %MON surfExpan_theta_mean         =  -1.7894238059570E-08
(PID.TID 0000.0001) %MON surfExpan_salt_mean          =   2.6448635416840E-21
(PID.TID 0000.0001) // =======================================================
(PID.TID 0000.0001) // End MONITOR dynamic field statistics
(PID.TID 0000.0001) // =======================================================
 cg2d: Sum(rhs),rhsMax =   6.03961325396085E-14  1.78373920893239E+00
(PID.TID 0000.0001)                    cg2d_init_res =    2.09308995363981E+00
(PID.TID 0000.0001)                       cg2d_iters =    34
(PID.TID 0000.0001)                         cg2d_res =    5.20196981801187E-14
(PID.TID 0000.0001) // =======================================================
(PID.TID 0000.0001) // Begin MONITOR dynamic field statistics
(PID.TID 0000.0001) // =======================================================
(PID.TID 0000.0001) %MON time_tsnumber                =                    21
(PID.TID 0000.0001) %MON time_secondsf                =   2.5200000000000E+04
(PID.TID 0000.0001) %MON dynstat_eta_max              =   4.5666318729965E-01
(PID.TID 0000.0001) %MON dynstat_eta_min              =  -4.5666227088186E-01
(PID.TID 0000.0001) %MON dynstat_eta_mean             =  -7.3216187433440E-17
(PID.TID 0000.0001) %MON dynstat_eta_sd               =   1.9996928885094E-01
(PID.TID 0000.0001) %MON dynstat_eta_del2             =   1.5124311749198E-04
(PID.TID 0000.0001) %MON dynstat_uvel_max             =   8.7940979727011E-03
(PID.TID 0000.0001) %MON dynstat_uvel_min             =  -8.7940979727010E-03
(PID.TID 0000.0001) %MON dynstat_uvel_mean            =  -8.4980058013053E-19
(PID.TID 0000.0001) %MON dynstat_uvel_sd              =   4.2019524625730E-03
(PID.TID 0000.0001) %MON dynstat_uvel_del2            =   2.1542344422025E-06
(PID.TID 0000.0001) %MON dynstat_vvel_max             =   8.7942544525402E-03
(PID.TID 0000.0001) %MON dynstat_vvel_min             =  -8.7942544525402E-03
(PID.TID 0000.0001) %MON dynstat_vvel_mean            =   3.8949193255983E-19
(PID.TID 0000.0001) %MON dynstat_vvel_sd              =   4.2018455605597E-03
(PID.TID 0000.0001) %MON dynstat_vvel_del2            =   2.1537316492164E-06
(PID.TID 0000.0001) %MON dynstat_wvel_max             =   3.1889151115603E-05
(PID.TID 0000.0001) %MON dynstat_wvel_min             =  -3.1889192908748E-05
(PID.TID 0000.0001) %MON dynstat_wvel_mean            =   2.2247080762051E-22
(PID.TID 0000.0001) %MON dynstat_wvel_sd              =   9.2890002832307E-06
(PID.TID 0000.0001) %MON dynstat_wvel_del2            =   4.4126055385403E-09
(PID.TID 0000.0001) %MON dynstat_theta_max            =   1.9993240289427E+01
(PID.TID 0000.0001) %MON dynstat_theta_min            =   6.0017945659093E+00
(PID.TID 0000.0001) %MON dynstat_theta_mean           =   1.1000000073801E+01
(PID.TID 0000.0001) %MON dynstat_theta_sd             =   5.3801166139500E+00
(PID.TID 0000.0001) %MON dynstat_theta_del2           =   4.2497171319280E-07
(PID.TID 0000.0001) %MON dynstat_salt_max             =   1.0000000000000E+01
(PID.TID 0000.0001) %MON dynstat_salt_min             =   1.0000000000000E+01
(PID.TID 0000.0001) %MON dynstat_salt_mean            =   1.0000000000000E+01
(PID.TID 0000.0001) %MON dynstat_salt_sd              =   0.0000000000000E+00
(PID.TID 0000.0001) %MON dynstat_salt_del2            =   0.0000000000000E+00
(PID.TID 0000.0001) %MON advcfl_uvel_max              =   1.0552917567241E-04
(PID.TID 0000.0001) %MON advcfl_vvel_max              =   1.0553105343048E-04
(PID.TID 0000.0001) %MON advcfl_wvel_max              =   1.5306812596199E-04
(PID.TID 0000.0001) %MON advcfl_W_hf_max              =   5.7295192156678E-05
(PID.TID 0000.0001) %MON pe_b_mean                    =  -1.1126680489062E-04
(PID.TID 0000.0001) %MON ke_max                       =   4.7241679669846E-05
(PID.TID 0000.0001) %MON ke_mean                      =   1.7286164265056E-05
(PID.TID 0000.0001) %MON ke_vol                       =   5.6340000000000E+16
(PID.TID 0000.0001) %MON vort_r_min                   =  -6.5660117945096E-08
(PID.TID 0000.0001) %MON vort_r_max                   =   6.5672555357256E-08
(PID.TID 0000.0001) %MON vort_a_mean                  =   1.0000000000000E-04
(PID.TID 0000.0001) %MON vort_a_sd                    =   1.1458696641068E-08
(PID.TID 0000.0001) %MON vort_p_mean                  =   1.0398839738941E-04
(PID.TID 0000.0001) %MON vort_p_sd                    =   3.0798699699311E-05
(PID.TID 0000.0001) %MON surfExpan_theta_mean         =  -1.8978726292356E-08
(PID.TID 0000.0001) %MON surfExpan_salt_mean          =   0.0000000000000E+00
(PID.TID 0000.0001) // =======================================================
(PID.TID 0000.0001) // End MONITOR dynamic field statistics
(PID.TID 0000.0001) // =======================================================
 cg2d: Sum(rhs),rhsMax =   1.27897692436818E-13  1.90459712619300E+00
(PID.TID 0000.0001)                    cg2d_init_res =    1.62288671662691E+00
(PID.TID 0000.0001)                       cg2d_iters =    34
(PID.TID 0000.0001)                         cg2d_res =    4.39875996872581E-14
(PID.TID 0000.0001) // =======================================================
(PID.TID 0000.0001) // Begin MONITOR dynamic field statistics
(PID.TID 0000.0001) // =======================================================
(PID.TID 0000.0001) %MON time_tsnumber                =                    22
(PID.TID 0000.0001) %MON time_secondsf                =   2.6400000000000E+04
(PID.TID 0000.0001) %MON dynstat_eta_max              =   4.8684303287109E-01
(PID.TID 0000.0001) %MON dynstat_eta_min              =  -4.8684390231724E-01
(PID.TID 0000.0001) %MON dynstat_eta_mean             =  -8.2090876819311E-17
(PID.TID 0000.0001) %MON dynstat_eta_sd               =   2.1280444784716E-01
(PID.TID 0000.0001) %MON dynstat_eta_del2             =   1.6291253566938E-04
(PID.TID 0000.0001) %MON dynstat_uvel_max             =   8.1549641031883E-03
(PID.TID 0000.0001) %MON dynstat_uvel_min             =  -8.1549641031883E-03
(PID.TID 0000.0001) %MON dynstat_uvel_mean            =   7.0816715010877E-20
(PID.TID 0000.0001) %MON dynstat_uvel_sd              =   4.1911634360115E-03
(PID.TID 0000.0001) %MON dynstat_uvel_del2            =   2.1030927428002E-06
(PID.TID 0000.0001) %MON dynstat_vvel_max             =   8.1538115055483E-03
(PID.TID 0000.0001) %MON dynstat_vvel_min             =  -8.1538115055484E-03
(PID.TID 0000.0001) %MON dynstat_vvel_mean            =   9.1176520576505E-19
(PID.TID 0000.0001) %MON dynstat_vvel_sd              =   4.1910735904955E-03
(PID.TID 0000.0001) %MON dynstat_vvel_del2            =   2.1026060597811E-06
(PID.TID 0000.0001) %MON dynstat_wvel_max             =   2.5565801204073E-05
(PID.TID 0000.0001) %MON dynstat_wvel_min             =  -2.5566799917953E-05
(PID.TID 0000.0001) %MON dynstat_wvel_mean            =  -6.5773977905193E-22
(PID.TID 0000.0001) %MON dynstat_wvel_sd              =   7.7178923054549E-06
(PID.TID 0000.0001) %MON dynstat_wvel_del2            =   3.6237340922332E-09
(PID.TID 0000.0001) %MON dynstat_theta_max            =   1.9993027696079E+01
(PID.TID 0000.0001) %MON dynstat_theta_min            =   6.0018726594442E+00
(PID.TID 0000.0001) %MON dynstat_theta_mean           =   1.1000000085578E+01
(PID.TID 0000.0001) %MON dynstat_theta_sd             =   5.3798765142040E+00
(PID.TID 0000.0001) %MON dynstat_theta_del2           =   4.6559986047251E-07
(PID.TID 0000.0001) %MON dynstat_salt_max             =   1.0000000000000E+01
(PID.TID 0000.0001) %MON dynstat_salt_min             =   1.0000000000000E+01
(PID.TID 0000.0001) %MON dynstat_salt_mean            =   1.0000000000000E+01
(PID.TID 0000.0001) %MON dynstat_salt_sd              =   0.0000000000000E+00
(PID.TID 0000.0001) %MON dynstat_salt_del2            =   0.0000000000000E+00
(PID.TID 0000.0001) %MON advcfl_uvel_max              =   9.7859569238259E-05
(PID.TID 0000.0001) %MON advcfl_vvel_max              =   9.7845738066580E-05
(PID.TID 0000.0001) %MON advcfl_wvel_max              =   1.2272063960617E-04
(PID.TID 0000.0001) %MON advcfl_W_hf_max              =   4.5932668923264E-05
(PID.TID 0000.0001) %MON pe_b_mean                    =  -1.1172615203626E-04
(PID.TID 0000.0001) %MON ke_max                       =   4.8395497645170E-05
(PID.TID 0000.0001) %MON ke_mean                      =   1.7197578409328E-05
(PID.TID 0000.0001) %MON ke_vol                       =   5.6340000000000E+16
(PID.TID 0000.0001) %MON vort_r_min                   =  -6.4051540982210E-08
(PID.TID 0000.0001) %MON vort_r_max                   =   6.4063174351192E-08
(PID.TID 0000.0001) %MON vort_a_mean                  =   1.0000000000000E-04
(PID.TID 0000.0001) %MON vort_a_sd                    =   1.2099738743129E-08
(PID.TID 0000.0001) %MON vort_p_mean                  =   1.0398839738941E-04
(PID.TID 0000.0001) %MON vort_p_sd                    =   3.0798700070716E-05
(PID.TID 0000.0001) %MON surfExpan_theta_mean         =  -1.6760889124834E-08
(PID.TID 0000.0001) %MON surfExpan_salt_mean          =  -1.0579454166736E-20
(PID.TID 0000.0001) // =======================================================
(PID.TID 0000.0001) // End MONITOR dynamic field statistics
(PID.TID 0000.0001) // =======================================================
 cg2d: Sum(rhs),rhsMax =   3.41060513164848E-13  1.98206267388728E+00
(PID.TID 0000.0001)                    cg2d_init_res =    1.09330238462028E+00
(PID.TID 0000.0001)                       cg2d_iters =    33
(PID.TID 0000.0001)                         cg2d_res =    9.89645737489796E-14
(PID.TID 0000.0001) // =======================================================
(PID.TID 0000.0001) // Begin MONITOR dynamic field statistics
(PID.TID 0000.0001) // =======================================================
(PID.TID 0000.0001) %MON time_tsnumber                =                    23
(PID.TID 0000.0001) %MON time_secondsf                =   2.7600000000000E+04
(PID.TID 0000.0001) %MON dynstat_eta_max              =   5.0612215126502E-01
(PID.TID 0000.0001) %MON dynstat_eta_min              =  -5.0612595644060E-01
(PID.TID 0000.0001) %MON dynstat_eta_mean             =  -1.0538693645722E-16
(PID.TID 0000.0001) %MON dynstat_eta_sd               =   2.2120728819490E-01
(PID.TID 0000.0001) %MON dynstat_eta_del2             =   1.7072859861216E-04
(PID.TID 0000.0001) %MON dynstat_uvel_max             =   8.8634425848599E-03
(PID.TID 0000.0001) %MON dynstat_uvel_min             =  -8.8634425848599E-03
(PID.TID 0000.0001) %MON dynstat_uvel_mean            =   2.8326686004351E-19
(PID.TID 0000.0001) %MON dynstat_uvel_sd              =   4.1100766454381E-03
(PID.TID 0000.0001) %MON dynstat_uvel_del2            =   1.9875276412804E-06
(PID.TID 0000.0001) %MON dynstat_vvel_max             =   8.8638474751742E-03
(PID.TID 0000.0001) %MON dynstat_vvel_min             =  -8.8638474751742E-03
(PID.TID 0000.0001) %MON dynstat_vvel_mean            =   1.1374934848622E-18
(PID.TID 0000.0001) %MON dynstat_vvel_sd              =   4.1100130668547E-03
(PID.TID 0000.0001) %MON dynstat_vvel_del2            =   1.9870910363800E-06
(PID.TID 0000.0001) %MON dynstat_wvel_max             =   1.6346995771150E-05
(PID.TID 0000.0001) %MON dynstat_wvel_min             =  -1.6348950865743E-05
(PID.TID 0000.0001) %MON dynstat_wvel_mean            =  -7.7381150476698E-23
(PID.TID 0000.0001) %MON dynstat_wvel_sd              =   5.4692304738698E-06
(PID.TID 0000.0001) %MON dynstat_wvel_del2            =   2.4579776874722E-09
(PID.TID 0000.0001) %MON dynstat_theta_max            =   1.9992740917020E+01
(PID.TID 0000.0001) %MON dynstat_theta_min            =   6.0019556928059E+00
(PID.TID 0000.0001) %MON dynstat_theta_mean           =   1.1000000094836E+01
(PID.TID 0000.0001) %MON dynstat_theta_sd             =   5.3796364351525E+00
(PID.TID 0000.0001) %MON dynstat_theta_del2           =   4.9575133994269E-07
(PID.TID 0000.0001) %MON dynstat_salt_max             =   1.0000000000000E+01
(PID.TID 0000.0001) %MON dynstat_salt_min             =   1.0000000000000E+01
(PID.TID 0000.0001) %MON dynstat_salt_mean            =   1.0000000000000E+01
(PID.TID 0000.0001) %MON dynstat_salt_sd              =   0.0000000000000E+00
(PID.TID 0000.0001) %MON dynstat_salt_del2            =   0.0000000000000E+00
(PID.TID 0000.0001) %MON advcfl_uvel_max              =   1.0636131101832E-04
(PID.TID 0000.0001) %MON advcfl_vvel_max              =   1.0636616970209E-04
(PID.TID 0000.0001) %MON advcfl_wvel_max              =   7.8474964155567E-05
(PID.TID 0000.0001) %MON advcfl_W_hf_max              =   2.9358996596161E-05
(PID.TID 0000.0001) %MON pe_b_mean                    =  -1.1150356533758E-04
(PID.TID 0000.0001) %MON ke_max                       =   4.7575752928515E-05
(PID.TID 0000.0001) %MON ke_mean                      =   1.6538668346207E-05
(PID.TID 0000.0001) %MON ke_vol                       =   5.6340000000000E+16
(PID.TID 0000.0001) %MON vort_r_min                   =  -5.8415629109629E-08
(PID.TID 0000.0001) %MON vort_r_max                   =   5.8426280933446E-08
(PID.TID 0000.0001) %MON vort_a_mean                  =   1.0000000000000E-04
(PID.TID 0000.0001) %MON vort_a_sd                    =   1.2441004654124E-08
(PID.TID 0000.0001) %MON vort_p_mean                  =   1.0398839738941E-04
(PID.TID 0000.0001) %MON vort_p_sd                    =   3.0798700237815E-05
(PID.TID 0000.0001) %MON surfExpan_theta_mean         =  -1.1558012129072E-08
(PID.TID 0000.0001) %MON surfExpan_salt_mean          =   0.0000000000000E+00
(PID.TID 0000.0001) // =======================================================
(PID.TID 0000.0001) // End MONITOR dynamic field statistics
(PID.TID 0000.0001) // =======================================================
 cg2d: Sum(rhs),rhsMax =   5.22248910783674E-13  2.01020086634278E+00
(PID.TID 0000.0001)                    cg2d_init_res =    6.25776215508879E-01
(PID.TID 0000.0001)                       cg2d_iters =    33
(PID.TID 0000.0001)                         cg2d_res =    6.72232739833923E-14
(PID.TID 0000.0001) // =======================================================
(PID.TID 0000.0001) // Begin MONITOR dynamic field statistics
(PID.TID 0000.0001) // =======================================================
(PID.TID 0000.0001) %MON time_tsnumber                =                    24
(PID.TID 0000.0001) %MON time_secondsf                =   2.8800000000000E+04
(PID.TID 0000.0001) %MON dynstat_eta_max              =   5.1301151116077E-01
(PID.TID 0000.0001) %MON dynstat_eta_min              =  -5.1301897984980E-01
(PID.TID 0000.0001) %MON dynstat_eta_mean             =  -7.5989527866525E-17
(PID.TID 0000.0001) %MON dynstat_eta_sd               =   2.2445021759639E-01
(PID.TID 0000.0001) %MON dynstat_eta_del2             =   1.7402613860137E-04
(PID.TID 0000.0001) %MON dynstat_uvel_max             =   9.3581529049272E-03
(PID.TID 0000.0001) %MON dynstat_uvel_min             =  -9.3581529049272E-03
(PID.TID 0000.0001) %MON dynstat_uvel_mean            =   1.0268423676577E-18
(PID.TID 0000.0001) %MON dynstat_uvel_sd              =   4.0344922630109E-03
(PID.TID 0000.0001) %MON dynstat_uvel_del2            =   1.8712148747046E-06
(PID.TID 0000.0001) %MON dynstat_vvel_max             =   9.3585721786393E-03
(PID.TID 0000.0001) %MON dynstat_vvel_min             =  -9.3585721786393E-03
(PID.TID 0000.0001) %MON dynstat_vvel_mean            =   1.2658487808194E-18
(PID.TID 0000.0001) %MON dynstat_vvel_sd              =   4.0344629795859E-03
(PID.TID 0000.0001) %MON dynstat_vvel_del2            =   1.8708637184348E-06
(PID.TID 0000.0001) %MON dynstat_wvel_max             =   1.0876926508916E-05
(PID.TID 0000.0001) %MON dynstat_wvel_min             =  -1.0874766677010E-05
(PID.TID 0000.0001) %MON dynstat_wvel_mean            =  -2.3214345143009E-22
(PID.TID 0000.0001) %MON dynstat_wvel_sd              =   3.3046752266724E-06
(PID.TID 0000.0001) %MON dynstat_wvel_del2            =   1.1766781064262E-09
(PID.TID 0000.0001) %MON dynstat_theta_max            =   1.9992356970989E+01
(PID.TID 0000.0001) %MON dynstat_theta_min            =   6.0020452001777E+00
(PID.TID 0000.0001) %MON dynstat_theta_mean           =   1.1000000099898E+01
(PID.TID 0000.0001) %MON dynstat_theta_sd             =   5.3793963742720E+00
(PID.TID 0000.0001) %MON dynstat_theta_del2           =   5.1246700533136E-07
(PID.TID 0000.0001) %MON dynstat_salt_max             =   1.0000000000000E+01
(PID.TID 0000.0001) %MON dynstat_salt_min             =   1.0000000000000E+01
(PID.TID 0000.0001) %MON dynstat_salt_mean            =   1.0000000000000E+01
(PID.TID 0000.0001) %MON dynstat_salt_sd              =   0.0000000000000E+00
(PID.TID 0000.0001) %MON dynstat_salt_del2            =   0.0000000000000E+00
(PID.TID 0000.0001) %MON advcfl_uvel_max              =   1.1229783485913E-04
(PID.TID 0000.0001) %MON advcfl_vvel_max              =   1.1230286614367E-04
(PID.TID 0000.0001) %MON advcfl_wvel_max              =   5.2209247242799E-05
(PID.TID 0000.0001) %MON advcfl_W_hf_max              =   1.9573387536159E-05
(PID.TID 0000.0001) %MON pe_b_mean                    =  -1.1127567000678E-04
(PID.TID 0000.0001) %MON ke_max                       =   4.6472355426236E-05
(PID.TID 0000.0001) %MON ke_mean                      =   1.5936099641139E-05
(PID.TID 0000.0001) %MON ke_vol                       =   5.6340000000000E+16
(PID.TID 0000.0001) %MON vort_r_min                   =  -5.0100363116988E-08
(PID.TID 0000.0001) %MON vort_r_max                   =   5.0110166851928E-08
(PID.TID 0000.0001) %MON vort_a_mean                  =   1.0000000000000E-04
(PID.TID 0000.0001) %MON vort_a_sd                    =   1.2510690367238E-08
(PID.TID 0000.0001) %MON vort_p_mean                  =   1.0398839738941E-04
(PID.TID 0000.0001) %MON vort_p_sd                    =   3.0798700226381E-05
(PID.TID 0000.0001) %MON surfExpan_theta_mean         =  -4.5838986873859E-09
(PID.TID 0000.0001) %MON surfExpan_salt_mean          =   8.4635633333888E-21
(PID.TID 0000.0001) // =======================================================
(PID.TID 0000.0001) // End MONITOR dynamic field statistics
(PID.TID 0000.0001) // =======================================================
 cg2d: Sum(rhs),rhsMax =   2.10498285468930E-13  1.99087265561610E+00
(PID.TID 0000.0001)                    cg2d_init_res =    5.15333883890282E-01
(PID.TID 0000.0001)                       cg2d_iters =    32
(PID.TID 0000.0001)                         cg2d_res =    9.37088534465817E-14
(PID.TID 0000.0001) // =======================================================
(PID.TID 0000.0001) // Begin MONITOR dynamic field statistics
(PID.TID 0000.0001) // =======================================================
(PID.TID 0000.0001) %MON time_tsnumber                =                    25
(PID.TID 0000.0001) %MON time_secondsf                =   3.0000000000000E+04
(PID.TID 0000.0001) %MON dynstat_eta_max              =   5.0798511556510E-01
(PID.TID 0000.0001) %MON dynstat_eta_min              =  -5.0799613314743E-01
(PID.TID 0000.0001) %MON dynstat_eta_mean             =  -5.1861466098687E-17
(PID.TID 0000.0001) %MON dynstat_eta_sd               =   2.2266239337114E-01
(PID.TID 0000.0001) %MON dynstat_eta_del2             =   1.7289151479951E-04
(PID.TID 0000.0001) %MON dynstat_uvel_max             =   9.5943554438523E-03
(PID.TID 0000.0001) %MON dynstat_uvel_min             =  -9.5943554438523E-03
(PID.TID 0000.0001) %MON dynstat_uvel_mean            =   0.0000000000000E+00
(PID.TID 0000.0001) %MON dynstat_uvel_sd              =   3.9954086476448E-03
(PID.TID 0000.0001) %MON dynstat_uvel_del2            =   1.7946344960269E-06
(PID.TID 0000.0001) %MON dynstat_vvel_max             =   9.5951010535794E-03
(PID.TID 0000.0001) %MON dynstat_vvel_min             =  -9.5951010535793E-03
(PID.TID 0000.0001) %MON dynstat_vvel_mean            =   9.1176520576505E-19
(PID.TID 0000.0001) %MON dynstat_vvel_sd              =   3.9954182442436E-03
(PID.TID 0000.0001) %MON dynstat_vvel_del2            =   1.7943942427059E-06
(PID.TID 0000.0001) %MON dynstat_wvel_max             =   7.8341652344661E-06
(PID.TID 0000.0001) %MON dynstat_wvel_min             =  -7.8330765833107E-06
(PID.TID 0000.0001) %MON dynstat_wvel_mean            =   2.0119099123941E-21
(PID.TID 0000.0001) %MON dynstat_wvel_sd              =   2.7794427334705E-06
(PID.TID 0000.0001) %MON dynstat_wvel_del2            =   6.4207529257399E-10
(PID.TID 0000.0001) %MON dynstat_theta_max            =   1.9991873748167E+01
(PID.TID 0000.0001) %MON dynstat_theta_min            =   6.0021413227996E+00
(PID.TID 0000.0001) %MON dynstat_theta_mean           =   1.1000000100138E+01
(PID.TID 0000.0001) %MON dynstat_theta_sd             =   5.3791563306792E+00
(PID.TID 0000.0001) %MON dynstat_theta_del2           =   5.1516050608200E-07
(PID.TID 0000.0001) %MON dynstat_salt_max             =   1.0000000000000E+01
(PID.TID 0000.0001) %MON dynstat_salt_min             =   1.0000000000000E+01
(PID.TID 0000.0001) %MON dynstat_salt_mean            =   1.0000000000000E+01
(PID.TID 0000.0001) %MON dynstat_salt_sd              =   0.0000000000000E+00
(PID.TID 0000.0001) %MON dynstat_salt_del2            =   0.0000000000000E+00
(PID.TID 0000.0001) %MON advcfl_uvel_max              =   1.1513226532623E-04
(PID.TID 0000.0001) %MON advcfl_vvel_max              =   1.1514121264295E-04
(PID.TID 0000.0001) %MON advcfl_wvel_max              =   3.7603993125437E-05
(PID.TID 0000.0001) %MON advcfl_W_hf_max              =   1.4108574425949E-05
(PID.TID 0000.0001) %MON pe_b_mean                    =  -1.1132316159210E-04
(PID.TID 0000.0001) %MON ke_max                       =   4.6220231061003E-05
(PID.TID 0000.0001) %MON ke_mean                      =   1.5628988388351E-05
(PID.TID 0000.0001) %MON ke_vol                       =   5.6340000000000E+16
(PID.TID 0000.0001) %MON vort_r_min                   =  -4.4373346032484E-08
(PID.TID 0000.0001) %MON vort_r_max                   =   4.4379834345477E-08
(PID.TID 0000.0001) %MON vort_a_mean                  =   1.0000000000000E-04
(PID.TID 0000.0001) %MON vort_a_sd                    =   1.2347470365877E-08
(PID.TID 0000.0001) %MON vort_p_mean                  =   1.0398839738941E-04
(PID.TID 0000.0001) %MON vort_p_sd                    =   3.0798700074496E-05
(PID.TID 0000.0001) %MON surfExpan_theta_mean         =   2.5058155870793E-09
(PID.TID 0000.0001) %MON surfExpan_salt_mean          =   6.3476725000416E-21
(PID.TID 0000.0001) // =======================================================
(PID.TID 0000.0001) // End MONITOR dynamic field statistics
(PID.TID 0000.0001) // =======================================================
 cg2d: Sum(rhs),rhsMax =   7.11652958784725E-14  1.93248451940050E+00
(PID.TID 0000.0001)                    cg2d_init_res =    8.12415040473385E-01
(PID.TID 0000.0001)                       cg2d_iters =    33
(PID.TID 0000.0001)                         cg2d_res =    3.79243824165060E-14
(PID.TID 0000.0001) // =======================================================
(PID.TID 0000.0001) // Begin MONITOR dynamic field statistics
(PID.TID 0000.0001) // =======================================================
(PID.TID 0000.0001) %MON time_tsnumber                =                    26
(PID.TID 0000.0001) %MON time_secondsf                =   3.1200000000000E+04
(PID.TID 0000.0001) %MON dynstat_eta_max              =   4.9316376653391E-01
(PID.TID 0000.0001) %MON dynstat_eta_min              =  -4.9317735050896E-01
(PID.TID 0000.0001) %MON dynstat_eta_mean             =  -5.4946807330493E-18
(PID.TID 0000.0001) %MON dynstat_eta_sd               =   2.1670079018890E-01
(PID.TID 0000.0001) %MON dynstat_eta_del2             =   1.6804688911384E-04
(PID.TID 0000.0001) %MON dynstat_uvel_max             =   9.5874067122807E-03
(PID.TID 0000.0001) %MON dynstat_uvel_min             =  -9.5874067122807E-03
(PID.TID 0000.0001) %MON dynstat_uvel_mean            =   5.3112536258158E-19
(PID.TID 0000.0001) %MON dynstat_uvel_sd              =   3.9712364688646E-03
(PID.TID 0000.0001) %MON dynstat_uvel_del2            =   1.7578944895004E-06
(PID.TID 0000.0001) %MON dynstat_vvel_max             =   9.5881343251465E-03
(PID.TID 0000.0001) %MON dynstat_vvel_min             =  -9.5881343251465E-03
(PID.TID 0000.0001) %MON dynstat_vvel_mean            =   9.2504333982959E-19
(PID.TID 0000.0001) %MON dynstat_vvel_sd              =   3.9712835406465E-03
(PID.TID 0000.0001) %MON dynstat_vvel_del2            =   1.7577695438213E-06
(PID.TID 0000.0001) %MON dynstat_wvel_max             =   1.3479516813759E-05
(PID.TID 0000.0001) %MON dynstat_wvel_min             =  -1.3481939724543E-05
(PID.TID 0000.0001) %MON dynstat_wvel_mean            =   0.0000000000000E+00
(PID.TID 0000.0001) %MON dynstat_wvel_sd              =   4.0457637528768E-06
(PID.TID 0000.0001) %MON dynstat_wvel_del2            =   1.5126476077815E-09
(PID.TID 0000.0001) %MON dynstat_theta_max            =   1.9991303623780E+01
(PID.TID 0000.0001) %MON dynstat_theta_min            =   6.0022432353020E+00
(PID.TID 0000.0001) %MON dynstat_theta_mean           =   1.1000000096082E+01
(PID.TID 0000.0001) %MON dynstat_theta_sd             =   5.3789163052431E+00
(PID.TID 0000.0001) %MON dynstat_theta_del2           =   5.0537711235991E-07
(PID.TID 0000.0001) %MON dynstat_salt_max             =   1.0000000000000E+01
(PID.TID 0000.0001) %MON dynstat_salt_min             =   1.0000000000000E+01
(PID.TID 0000.0001) %MON dynstat_salt_mean            =   1.0000000000000E+01
(PID.TID 0000.0001) %MON dynstat_salt_sd              =   0.0000000000000E+00
(PID.TID 0000.0001) %MON dynstat_salt_del2            =   0.0000000000000E+00
(PID.TID 0000.0001) %MON advcfl_uvel_max              =   1.1504888054737E-04
(PID.TID 0000.0001) %MON advcfl_vvel_max              =   1.1505761190176E-04
(PID.TID 0000.0001) %MON advcfl_wvel_max              =   6.4713310677808E-05
(PID.TID 0000.0001) %MON advcfl_W_hf_max              =   2.4279542607436E-05
(PID.TID 0000.0001) %MON pe_b_mean                    =  -1.1149907663813E-04
(PID.TID 0000.0001) %MON ke_max                       =   4.6120918948700E-05
(PID.TID 0000.0001) %MON ke_mean                      =   1.5440595960064E-05
(PID.TID 0000.0001) %MON ke_vol                       =   5.6340000000000E+16
(PID.TID 0000.0001) %MON vort_r_min                   =  -4.2957877381519E-08
(PID.TID 0000.0001) %MON vort_r_max                   =   4.2953486604298E-08
(PID.TID 0000.0001) %MON vort_a_mean                  =   1.0000000000000E-04
(PID.TID 0000.0001) %MON vort_a_sd                    =   1.1993310586187E-08
(PID.TID 0000.0001) %MON vort_p_mean                  =   1.0398839738941E-04
(PID.TID 0000.0001) %MON vort_p_sd                    =   3.0798699818533E-05
(PID.TID 0000.0001) %MON surfExpan_theta_mean         =   8.2072914783122E-09
(PID.TID 0000.0001) %MON surfExpan_salt_mean          =   2.1158908333472E-21
(PID.TID 0000.0001) // =======================================================
(PID.TID 0000.0001) // End MONITOR dynamic field statistics
(PID.TID 0000.0001) // =======================================================
 cg2d: Sum(rhs),rhsMax =  -1.33226762955019E-14  1.84797482208775E+00
(PID.TID 0000.0001)                    cg2d_init_res =    1.13091776926524E+00
(PID.TID 0000.0001)                       cg2d_iters =    33
(PID.TID 0000.0001)                         cg2d_res =    5.39210026635988E-14
(PID.TID 0000.0001) // =======================================================
(PID.TID 0000.0001) // Begin MONITOR dynamic field statistics
(PID.TID 0000.0001) // =======================================================
(PID.TID 0000.0001) %MON time_tsnumber                =                    27
(PID.TID 0000.0001) %MON time_secondsf                =   3.2400000000000E+04
(PID.TID 0000.0001) %MON dynstat_eta_max              =   4.7180719687684E-01
(PID.TID 0000.0001) %MON dynstat_eta_min              =  -4.7182185541292E-01
(PID.TID 0000.0001) %MON dynstat_eta_mean             =   2.4266728789492E-17
(PID.TID 0000.0001) %MON dynstat_eta_sd               =   2.0793018479646E-01
(PID.TID 0000.0001) %MON dynstat_eta_del2             =   1.6065765300593E-04
(PID.TID 0000.0001) %MON dynstat_uvel_max             =   9.3545337293345E-03
(PID.TID 0000.0001) %MON dynstat_uvel_min             =  -9.3545337293345E-03
(PID.TID 0000.0001) %MON dynstat_uvel_mean            =   4.6030864757070E-19
(PID.TID 0000.0001) %MON dynstat_uvel_sd              =   3.9142318879212E-03
(PID.TID 0000.0001) %MON dynstat_uvel_del2            =   1.7304000361743E-06
(PID.TID 0000.0001) %MON dynstat_vvel_max             =   9.3552208155016E-03
(PID.TID 0000.0001) %MON dynstat_vvel_min             =  -9.3552208155016E-03
(PID.TID 0000.0001) %MON dynstat_vvel_mean            =   1.3499436298949E-18
(PID.TID 0000.0001) %MON dynstat_vvel_sd              =   3.9143086667524E-03
(PID.TID 0000.0001) %MON dynstat_vvel_del2            =   1.7303744380219E-06
(PID.TID 0000.0001) %MON dynstat_wvel_max             =   1.8760572367537E-05
(PID.TID 0000.0001) %MON dynstat_wvel_min             =  -1.8761563769626E-05
(PID.TID 0000.0001) %MON dynstat_wvel_mean            =  -5.4166805333688E-22
(PID.TID 0000.0001) %MON dynstat_wvel_sd              =   5.2846740070127E-06
(PID.TID 0000.0001) %MON dynstat_wvel_del2            =   2.2388270804056E-09
(PID.TID 0000.0001) %MON dynstat_theta_max            =   1.9990669875916E+01
(PID.TID 0000.0001) %MON dynstat_theta_min            =   6.0023493848005E+00
(PID.TID 0000.0001) %MON dynstat_theta_mean           =   1.1000000089105E+01
(PID.TID 0000.0001) %MON dynstat_theta_sd             =   5.3786763001189E+00
(PID.TID 0000.0001) %MON dynstat_theta_del2           =   4.8627360592694E-07
(PID.TID 0000.0001) %MON dynstat_salt_max             =   1.0000000000000E+01
(PID.TID 0000.0001) %MON dynstat_salt_min             =   1.0000000000000E+01
(PID.TID 0000.0001) %MON dynstat_salt_mean            =   1.0000000000000E+01
(PID.TID 0000.0001) %MON dynstat_salt_sd              =   0.0000000000000E+00
(PID.TID 0000.0001) %MON dynstat_salt_del2            =   0.0000000000000E+00
(PID.TID 0000.0001) %MON advcfl_uvel_max              =   1.1225440475201E-04
(PID.TID 0000.0001) %MON advcfl_vvel_max              =   1.1226264978602E-04
(PID.TID 0000.0001) %MON advcfl_wvel_max              =   9.0055506094204E-05
(PID.TID 0000.0001) %MON advcfl_W_hf_max              =   3.3761885134537E-05
(PID.TID 0000.0001) %MON pe_b_mean                    =  -1.1144930694224E-04
(PID.TID 0000.0001) %MON ke_max                       =   4.5366207956933E-05
(PID.TID 0000.0001) %MON ke_mean                      =   1.5000613972174E-05
(PID.TID 0000.0001) %MON ke_vol                       =   5.6340000000000E+16
(PID.TID 0000.0001) %MON vort_r_min                   =  -4.3563151931615E-08
(PID.TID 0000.0001) %MON vort_r_max                   =   4.3558194040765E-08
(PID.TID 0000.0001) %MON vort_a_mean                  =   1.0000000000000E-04
(PID.TID 0000.0001) %MON vort_a_sd                    =   1.1492585796781E-08
(PID.TID 0000.0001) %MON vort_p_mean                  =   1.0398839738941E-04
(PID.TID 0000.0001) %MON vort_p_sd                    =   3.0798699490077E-05
(PID.TID 0000.0001) %MON surfExpan_theta_mean         =   1.1613930891683E-08
(PID.TID 0000.0001) %MON surfExpan_salt_mean          =  -1.0579454166736E-21
(PID.TID 0000.0001) // =======================================================
(PID.TID 0000.0001) // End MONITOR dynamic field statistics
(PID.TID 0000.0001) // =======================================================
 cg2d: Sum(rhs),rhsMax =  -1.66977542903624E-13  1.75241732423921E+00
(PID.TID 0000.0001)                    cg2d_init_res =    1.32874750502156E+00
(PID.TID 0000.0001)                       cg2d_iters =    33
(PID.TID 0000.0001)                         cg2d_res =    7.15850636426528E-14
(PID.TID 0000.0001) // =======================================================
(PID.TID 0000.0001) // Begin MONITOR dynamic field statistics
(PID.TID 0000.0001) // =======================================================
(PID.TID 0000.0001) %MON time_tsnumber                =                    28
(PID.TID 0000.0001) %MON time_secondsf                =   3.3600000000000E+04
(PID.TID 0000.0001) %MON dynstat_eta_max              =   4.4771075539514E-01
(PID.TID 0000.0001) %MON dynstat_eta_min              =  -4.4772502622036E-01
(PID.TID 0000.0001) %MON dynstat_eta_mean             =   4.9642793752219E-17
(PID.TID 0000.0001) %MON dynstat_eta_sd               =   1.9795626574776E-01
(PID.TID 0000.0001) %MON dynstat_eta_del2             =   1.5210191342708E-04
(PID.TID 0000.0001) %MON dynstat_uvel_max             =   8.8828736831719E-03
(PID.TID 0000.0001) %MON dynstat_uvel_min             =  -8.8828736831719E-03
(PID.TID 0000.0001) %MON dynstat_uvel_mean            =   1.4163343002175E-19
(PID.TID 0000.0001) %MON dynstat_uvel_sd              =   3.7864899053819E-03
(PID.TID 0000.0001) %MON dynstat_uvel_del2            =   1.6786791850345E-06
(PID.TID 0000.0001) %MON dynstat_vvel_max             =   8.8834976277831E-03
(PID.TID 0000.0001) %MON dynstat_vvel_min             =  -8.8834976277831E-03
(PID.TID 0000.0001) %MON dynstat_vvel_mean            =   1.2038841551849E-18
(PID.TID 0000.0001) %MON dynstat_vvel_sd              =   3.7865838917973E-03
(PID.TID 0000.0001) %MON dynstat_vvel_del2            =   1.6787249564772E-06
(PID.TID 0000.0001) %MON dynstat_wvel_max             =   2.0964637742111E-05
(PID.TID 0000.0001) %MON dynstat_wvel_min             =  -2.0964277482613E-05
(PID.TID 0000.0001) %MON dynstat_wvel_mean            =  -1.8571476114407E-21
(PID.TID 0000.0001) %MON dynstat_wvel_sd              =   5.8473617070217E-06
(PID.TID 0000.0001) %MON dynstat_wvel_del2            =   2.5881599301558E-09
(PID.TID 0000.0001) %MON dynstat_theta_max            =   1.9990002023329E+01
(PID.TID 0000.0001) %MON dynstat_theta_min            =   6.0024578020114E+00
(PID.TID 0000.0001) %MON dynstat_theta_mean           =   1.1000000080910E+01
(PID.TID 0000.0001) %MON dynstat_theta_sd             =   5.3784363179814E+00
(PID.TID 0000.0001) %MON dynstat_theta_del2           =   4.6193685691925E-07
(PID.TID 0000.0001) %MON dynstat_salt_max             =   1.0000000000000E+01
(PID.TID 0000.0001) %MON dynstat_salt_min             =   1.0000000000000E+01
(PID.TID 0000.0001) %MON dynstat_salt_mean            =   1.0000000000000E+01
(PID.TID 0000.0001) %MON dynstat_salt_sd              =   0.0000000000000E+00
(PID.TID 0000.0001) %MON dynstat_salt_del2            =   0.0000000000000E+00
(PID.TID 0000.0001) %MON advcfl_uvel_max              =   1.0659448419806E-04
(PID.TID 0000.0001) %MON advcfl_vvel_max              =   1.0660197153340E-04
(PID.TID 0000.0001) %MON advcfl_wvel_max              =   1.0063026116213E-04
(PID.TID 0000.0001) %MON advcfl_W_hf_max              =   3.7704951258086E-05
(PID.TID 0000.0001) %MON pe_b_mean                    =  -1.1090512493014E-04
(PID.TID 0000.0001) %MON ke_max                       =   4.2726462836892E-05
(PID.TID 0000.0001) %MON ke_mean                      =   1.4037565683924E-05
(PID.TID 0000.0001) %MON ke_vol                       =   5.6340000000000E+16
(PID.TID 0000.0001) %MON vort_r_min                   =  -4.1849872347433E-08
(PID.TID 0000.0001) %MON vort_r_max                   =   4.1843827027987E-08
(PID.TID 0000.0001) %MON vort_a_mean                  =   1.0000000000000E-04
(PID.TID 0000.0001) %MON vort_a_sd                    =   1.0894764031279E-08
(PID.TID 0000.0001) %MON vort_p_mean                  =   1.0398839738941E-04
(PID.TID 0000.0001) %MON vort_p_sd                    =   3.0798699119431E-05
(PID.TID 0000.0001) %MON surfExpan_theta_mean         =   1.2554358133874E-08
(PID.TID 0000.0001) %MON surfExpan_salt_mean          =  -1.4811235833430E-20
(PID.TID 0000.0001) // =======================================================
(PID.TID 0000.0001) // End MONITOR dynamic field statistics
(PID.TID 0000.0001) // =======================================================
 cg2d: Sum(rhs),rhsMax =  -2.73558953267639E-13  1.66063016125424E+00
(PID.TID 0000.0001)                    cg2d_init_res =    1.35332339618148E+00
(PID.TID 0000.0001)                       cg2d_iters =    33
(PID.TID 0000.0001)                         cg2d_res =    8.40180281588305E-14
(PID.TID 0000.0001) // =======================================================
(PID.TID 0000.0001) // Begin MONITOR dynamic field statistics
(PID.TID 0000.0001) // =======================================================
(PID.TID 0000.0001) %MON time_tsnumber                =                    29
(PID.TID 0000.0001) %MON time_secondsf                =   3.4800000000000E+04
(PID.TID 0000.0001) %MON dynstat_eta_max              =   4.2460410536294E-01
(PID.TID 0000.0001) %MON dynstat_eta_min              =  -4.2461701478124E-01
(PID.TID 0000.0001) %MON dynstat_eta_mean             =   8.4309549165779E-17
(PID.TID 0000.0001) %MON dynstat_eta_sd               =   1.8835640098517E-01
(PID.TID 0000.0001) %MON dynstat_eta_del2             =   1.4373992523982E-04
(PID.TID 0000.0001) %MON dynstat_uvel_max             =   8.2436013092110E-03
(PID.TID 0000.0001) %MON dynstat_uvel_min             =  -8.2436013092110E-03
(PID.TID 0000.0001) %MON dynstat_uvel_mean            =   4.2490029006526E-19
(PID.TID 0000.0001) %MON dynstat_uvel_sd              =   3.5824966493429E-03
(PID.TID 0000.0001) %MON dynstat_uvel_del2            =   1.5873042567780E-06
(PID.TID 0000.0001) %MON dynstat_vvel_max             =   8.2441451545505E-03
(PID.TID 0000.0001) %MON dynstat_vvel_min             =  -8.2441451545505E-03
(PID.TID 0000.0001) %MON dynstat_vvel_mean            =   6.5505461385062E-19
(PID.TID 0000.0001) %MON dynstat_vvel_sd              =   3.5825933704755E-03
(PID.TID 0000.0001) %MON dynstat_vvel_del2            =   1.5873865413187E-06
(PID.TID 0000.0001) %MON dynstat_wvel_max             =   2.0023235685501E-05
(PID.TID 0000.0001) %MON dynstat_wvel_min             =  -2.0021989666415E-05
(PID.TID 0000.0001) %MON dynstat_wvel_mean            =   8.5119265524367E-22
(PID.TID 0000.0001) %MON dynstat_wvel_sd              =   5.6262065190039E-06
(PID.TID 0000.0001) %MON dynstat_wvel_del2            =   2.5456972125451E-09
(PID.TID 0000.0001) %MON dynstat_theta_max            =   1.9989330880331E+01
(PID.TID 0000.0001) %MON dynstat_theta_min            =   6.0025664311860E+00
(PID.TID 0000.0001) %MON dynstat_theta_mean           =   1.1000000073039E+01
(PID.TID 0000.0001) %MON dynstat_theta_sd             =   5.3781963612956E+00
(PID.TID 0000.0001) %MON dynstat_theta_del2           =   4.3665754145018E-07
(PID.TID 0000.0001) %MON dynstat_salt_max             =   1.0000000000000E+01
(PID.TID 0000.0001) %MON dynstat_salt_min             =   1.0000000000000E+01
(PID.TID 0000.0001) %MON dynstat_salt_mean            =   1.0000000000000E+01
(PID.TID 0000.0001) %MON dynstat_salt_sd              =   0.0000000000000E+00
(PID.TID 0000.0001) %MON dynstat_salt_del2            =   0.0000000000000E+00
(PID.TID 0000.0001) %MON advcfl_uvel_max              =   9.8923215710532E-05
(PID.TID 0000.0001) %MON advcfl_vvel_max              =   9.8929741854606E-05
(PID.TID 0000.0001) %MON advcfl_wvel_max              =   9.6111531290407E-05
(PID.TID 0000.0001) %MON advcfl_W_hf_max              =   3.5986344735336E-05
(PID.TID 0000.0001) %MON pe_b_mean                    =  -1.0987217161771E-04
(PID.TID 0000.0001) %MON ke_max                       =   3.8016259207096E-05
(PID.TID 0000.0001) %MON ke_mean                      =   1.2565816859604E-05
(PID.TID 0000.0001) %MON ke_vol                       =   5.6340000000000E+16
(PID.TID 0000.0001) %MON vort_r_min                   =  -3.8102304145674E-08
(PID.TID 0000.0001) %MON vort_r_max                   =   3.8094965162810E-08
(PID.TID 0000.0001) %MON vort_a_mean                  =   1.0000000000000E-04
(PID.TID 0000.0001) %MON vort_a_sd                    =   1.0257608330448E-08
(PID.TID 0000.0001) %MON vort_p_mean                  =   1.0398839738941E-04
(PID.TID 0000.0001) %MON vort_p_sd                    =   3.0798698739468E-05
(PID.TID 0000.0001) %MON surfExpan_theta_mean         =   1.1438559059118E-08
(PID.TID 0000.0001) %MON surfExpan_salt_mean          =   1.4811235833430E-20
(PID.TID 0000.0001) // =======================================================
(PID.TID 0000.0001) // End MONITOR dynamic field statistics
(PID.TID 0000.0001) // =======================================================
 cg2d: Sum(rhs),rhsMax =  -6.67910171614494E-13  1.58683091531969E+00
(PID.TID 0000.0001)                    cg2d_init_res =    1.18810660319644E+00
(PID.TID 0000.0001)                       cg2d_iters =    33
(PID.TID 0000.0001)                         cg2d_res =    8.60626944227920E-14
(PID.TID 0000.0001) // =======================================================
(PID.TID 0000.0001) // Begin MONITOR dynamic field statistics
(PID.TID 0000.0001) // =======================================================
(PID.TID 0000.0001) %MON time_tsnumber                =                    30
(PID.TID 0000.0001) %MON time_secondsf                =   3.6000000000000E+04
(PID.TID 0000.0001) %MON dynstat_eta_max              =   4.0588241118727E-01
(PID.TID 0000.0001) %MON dynstat_eta_min              =  -4.0589419396146E-01
(PID.TID 0000.0001) %MON dynstat_eta_mean             =   1.2535498757543E-16
(PID.TID 0000.0001) %MON dynstat_eta_sd               =   1.8044990737262E-01
(PID.TID 0000.0001) %MON dynstat_eta_del2             =   1.3671831449335E-04
(PID.TID 0000.0001) %MON dynstat_uvel_max             =   7.5341081462776E-03
(PID.TID 0000.0001) %MON dynstat_uvel_min             =  -7.5341081462776E-03
(PID.TID 0000.0001) %MON dynstat_uvel_mean            =   7.0816715010877E-19
(PID.TID 0000.0001) %MON dynstat_uvel_sd              =   3.3343776552989E-03
(PID.TID 0000.0001) %MON dynstat_uvel_del2            =   1.4650246610264E-06
(PID.TID 0000.0001) %MON dynstat_vvel_max             =   7.5344186866132E-03
(PID.TID 0000.0001) %MON dynstat_vvel_min             =  -7.5344186866131E-03
(PID.TID 0000.0001) %MON dynstat_vvel_mean            =   6.0194207759246E-19
(PID.TID 0000.0001) %MON dynstat_vvel_sd              =   3.3344645144430E-03
(PID.TID 0000.0001) %MON dynstat_vvel_del2            =   1.4651025939604E-06
(PID.TID 0000.0001) %MON dynstat_wvel_max             =   1.6421892238049E-05
(PID.TID 0000.0001) %MON dynstat_wvel_min             =  -1.6420836157091E-05
(PID.TID 0000.0001) %MON dynstat_wvel_mean            =  -2.7083402666844E-22
(PID.TID 0000.0001) %MON dynstat_wvel_sd              =   4.7136399144051E-06
(PID.TID 0000.0001) %MON dynstat_wvel_del2            =   2.1660281508915E-09
(PID.TID 0000.0001) %MON dynstat_theta_max            =   1.9988684659655E+01
(PID.TID 0000.0001) %MON dynstat_theta_min            =   6.0026733907626E+00
(PID.TID 0000.0001) %MON dynstat_theta_mean           =   1.1000000066578E+01
(PID.TID 0000.0001) %MON dynstat_theta_sd             =   5.3779564318665E+00
(PID.TID 0000.0001) %MON dynstat_theta_del2           =   4.1427018721849E-07
(PID.TID 0000.0001) %MON dynstat_salt_max             =   1.0000000000000E+01
(PID.TID 0000.0001) %MON dynstat_salt_min             =   1.0000000000000E+01
(PID.TID 0000.0001) %MON dynstat_salt_mean            =   1.0000000000000E+01
(PID.TID 0000.0001) %MON dynstat_salt_sd              =   0.0000000000000E+00
(PID.TID 0000.0001) %MON dynstat_salt_del2            =   0.0000000000000E+00
(PID.TID 0000.0001) %MON advcfl_uvel_max              =   9.0409297755331E-05
(PID.TID 0000.0001) %MON advcfl_vvel_max              =   9.0413024239358E-05
(PID.TID 0000.0001) %MON advcfl_wvel_max              =   7.8825082742636E-05
(PID.TID 0000.0001) %MON advcfl_W_hf_max              =   2.9481686072925E-05
(PID.TID 0000.0001) %MON pe_b_mean                    =  -1.0863382083271E-04
(PID.TID 0000.0001) %MON ke_max                       =   3.2019863800260E-05
(PID.TID 0000.0001) %MON ke_mean                      =   1.0885497990010E-05
(PID.TID 0000.0001) %MON ke_vol                       =   5.6340000000000E+16
(PID.TID 0000.0001) %MON vort_r_min                   =  -3.2794629895918E-08
(PID.TID 0000.0001) %MON vort_r_max                   =   3.2786058213972E-08
(PID.TID 0000.0001) %MON vort_a_mean                  =   1.0000000000000E-04
(PID.TID 0000.0001) %MON vort_a_sd                    =   9.6477253436573E-09
(PID.TID 0000.0001) %MON vort_p_mean                  =   1.0398839738941E-04
(PID.TID 0000.0001) %MON vort_p_sd                    =   3.0798698385547E-05
(PID.TID 0000.0001) %MON surfExpan_theta_mean         =   8.9537062892920E-09
(PID.TID 0000.0001) %MON surfExpan_salt_mean          =  -1.1637399583410E-20
(PID.TID 0000.0001) // =======================================================
(PID.TID 0000.0001) // End MONITOR dynamic field statistics
(PID.TID 0000.0001) // =======================================================
 cg2d: Sum(rhs),rhsMax =  -7.42517158869305E-13  1.53792940319636E+00
(PID.TID 0000.0001)                    cg2d_init_res =    8.62556256030145E-01
(PID.TID 0000.0001)                       cg2d_iters =    33
(PID.TID 0000.0001)                         cg2d_res =    7.55303191617691E-14
(PID.TID 0000.0001) // =======================================================
(PID.TID 0000.0001) // Begin MONITOR dynamic field statistics
(PID.TID 0000.0001) // =======================================================
(PID.TID 0000.0001) %MON time_tsnumber                =                    31
(PID.TID 0000.0001) %MON time_secondsf                =   3.7200000000000E+04
(PID.TID 0000.0001) %MON dynstat_eta_max              =   3.9366807178795E-01
(PID.TID 0000.0001) %MON dynstat_eta_min              =  -3.9367818070094E-01
(PID.TID 0000.0001) %MON dynstat_eta_mean             =   1.5419772807952E-16
(PID.TID 0000.0001) %MON dynstat_eta_sd               =   1.7514168290486E-01
(PID.TID 0000.0001) %MON dynstat_eta_del2             =   1.3183689760115E-04
(PID.TID 0000.0001) %MON dynstat_uvel_max             =   6.8314032226547E-03
(PID.TID 0000.0001) %MON dynstat_uvel_min             =  -6.8314032226547E-03
(PID.TID 0000.0001) %MON dynstat_uvel_mean            =   5.6653372008702E-19
(PID.TID 0000.0001) %MON dynstat_uvel_sd              =   3.1031586515589E-03
(PID.TID 0000.0001) %MON dynstat_uvel_del2            =   1.3410117183128E-06
(PID.TID 0000.0001) %MON dynstat_vvel_max             =   6.8316370873539E-03
(PID.TID 0000.0001) %MON dynstat_vvel_min             =  -6.8316370873539E-03
(PID.TID 0000.0001) %MON dynstat_vvel_mean            =   8.1439222262509E-19
(PID.TID 0000.0001) %MON dynstat_vvel_sd              =   3.1032298892489E-03
(PID.TID 0000.0001) %MON dynstat_vvel_del2            =   1.3410403901329E-06
(PID.TID 0000.0001) %MON dynstat_wvel_max             =   1.0973109572752E-05
(PID.TID 0000.0001) %MON dynstat_wvel_min             =  -1.0972335744126E-05
(PID.TID 0000.0001) %MON dynstat_wvel_mean            =  -5.0297747809853E-22
(PID.TID 0000.0001) %MON dynstat_wvel_sd              =   3.3187548703039E-06
(PID.TID 0000.0001) %MON dynstat_wvel_del2            =   1.5508537446057E-09
(PID.TID 0000.0001) %MON dynstat_theta_max            =   1.9988086916762E+01
(PID.TID 0000.0001) %MON dynstat_theta_min            =   6.0027771072772E+00
(PID.TID 0000.0001) %MON dynstat_theta_mean           =   1.1000000062100E+01
(PID.TID 0000.0001) %MON dynstat_theta_sd             =   5.3777165307232E+00
(PID.TID 0000.0001) %MON dynstat_theta_del2           =   3.9765793057587E-07
(PID.TID 0000.0001) %MON dynstat_salt_max             =   1.0000000000000E+01
(PID.TID 0000.0001) %MON dynstat_salt_min             =   1.0000000000000E+01
(PID.TID 0000.0001) %MON dynstat_salt_mean            =   1.0000000000000E+01
(PID.TID 0000.0001) %MON dynstat_salt_sd              =   0.0000000000000E+00
(PID.TID 0000.0001) %MON dynstat_salt_del2            =   0.0000000000000E+00
(PID.TID 0000.0001) %MON advcfl_uvel_max              =   8.1976838671857E-05
(PID.TID 0000.0001) %MON advcfl_vvel_max              =   8.1979645048247E-05
(PID.TID 0000.0001) %MON advcfl_wvel_max              =   5.2670925949207E-05
(PID.TID 0000.0001) %MON advcfl_W_hf_max              =   1.9649500579069E-05
(PID.TID 0000.0001) %MON pe_b_mean                    =  -1.0760102954455E-04
(PID.TID 0000.0001) %MON ke_max                       =   2.5688197028036E-05
(PID.TID 0000.0001) %MON ke_mean                      =   9.4281252717692E-06
(PID.TID 0000.0001) %MON ke_vol                       =   5.6340000000000E+16
(PID.TID 0000.0001) %MON vort_r_min                   =  -2.6506908185318E-08
(PID.TID 0000.0001) %MON vort_r_max                   =   2.6497329234174E-08
(PID.TID 0000.0001) %MON vort_a_mean                  =   1.0000000000000E-04
(PID.TID 0000.0001) %MON vort_a_sd                    =   9.1354321066000E-09
(PID.TID 0000.0001) %MON vort_p_mean                  =   1.0398839738941E-04
(PID.TID 0000.0001) %MON vort_p_sd                    =   3.0798698090842E-05
(PID.TID 0000.0001) %MON surfExpan_theta_mean         =   5.7791826466169E-09
(PID.TID 0000.0001) %MON surfExpan_salt_mean          =  -3.1738362500208E-21
(PID.TID 0000.0001) // =======================================================
(PID.TID 0000.0001) // End MONITOR dynamic field statistics
(PID.TID 0000.0001) // =======================================================
 cg2d: Sum(rhs),rhsMax =  -9.23705556488130E-13  1.51757952118030E+00
(PID.TID 0000.0001)                    cg2d_init_res =    4.58225733220759E-01
(PID.TID 0000.0001)                       cg2d_iters =    33
(PID.TID 0000.0001)                         cg2d_res =    5.87050806812709E-14
(PID.TID 0000.0001) // =======================================================
(PID.TID 0000.0001) // Begin MONITOR dynamic field statistics
(PID.TID 0000.0001) // =======================================================
(PID.TID 0000.0001) %MON time_tsnumber                =                    32
(PID.TID 0000.0001) %MON time_secondsf                =   3.8400000000000E+04
(PID.TID 0000.0001) %MON dynstat_eta_max              =   3.8868147785611E-01
(PID.TID 0000.0001) %MON dynstat_eta_min              =  -3.8869055695186E-01
(PID.TID 0000.0001) %MON dynstat_eta_mean             =   2.0189918352858E-16
(PID.TID 0000.0001) %MON dynstat_eta_sd               =   1.7285602059721E-01
(PID.TID 0000.0001) %MON dynstat_eta_del2             =   1.2949142109410E-04
(PID.TID 0000.0001) %MON dynstat_uvel_max             =   6.1897878234839E-03
(PID.TID 0000.0001) %MON dynstat_uvel_min             =  -6.1897878234839E-03
(PID.TID 0000.0001) %MON dynstat_uvel_mean            =   9.9143401015228E-19
(PID.TID 0000.0001) %MON dynstat_uvel_sd              =   2.9556897524020E-03
(PID.TID 0000.0001) %MON dynstat_uvel_del2            =   1.2532229932892E-06
(PID.TID 0000.0001) %MON dynstat_vvel_max             =   6.1899935292984E-03
(PID.TID 0000.0001) %MON dynstat_vvel_min             =  -6.1899935292984E-03
(PID.TID 0000.0001) %MON dynstat_vvel_mean            =   3.5408357505439E-19
(PID.TID 0000.0001) %MON dynstat_vvel_sd              =   2.9557505706578E-03
(PID.TID 0000.0001) %MON dynstat_vvel_del2            =   1.2531637297217E-06
(PID.TID 0000.0001) %MON dynstat_wvel_max             =   6.6532993202677E-06
(PID.TID 0000.0001) %MON dynstat_wvel_min             =  -6.6520661460211E-06
(PID.TID 0000.0001) %MON dynstat_wvel_mean            =   3.6756046476431E-22
(PID.TID 0000.0001) %MON dynstat_wvel_sd              =   1.7585833772430E-06
(PID.TID 0000.0001) %MON dynstat_wvel_del2            =   8.4709182445269E-10
(PID.TID 0000.0001) %MON dynstat_theta_max            =   1.9987545216897E+01
(PID.TID 0000.0001) %MON dynstat_theta_min            =   6.0028770773789E+00
(PID.TID 0000.0001) %MON dynstat_theta_mean           =   1.1000000059775E+01
(PID.TID 0000.0001) %MON dynstat_theta_sd             =   5.3774766582426E+00
(PID.TID 0000.0001) %MON dynstat_theta_del2           =   3.8848798793871E-07
(PID.TID 0000.0001) %MON dynstat_salt_max             =   1.0000000000000E+01
(PID.TID 0000.0001) %MON dynstat_salt_min             =   1.0000000000000E+01
(PID.TID 0000.0001) %MON dynstat_salt_mean            =   1.0000000000000E+01
(PID.TID 0000.0001) %MON dynstat_salt_sd              =   0.0000000000000E+00
(PID.TID 0000.0001) %MON dynstat_salt_del2            =   0.0000000000000E+00
(PID.TID 0000.0001) %MON advcfl_uvel_max              =   7.4277453881807E-05
(PID.TID 0000.0001) %MON advcfl_vvel_max              =   7.4279922351580E-05
(PID.TID 0000.0001) %MON advcfl_wvel_max              =   3.1935836737285E-05
(PID.TID 0000.0001) %MON advcfl_W_hf_max              =   1.1630409554285E-05
(PID.TID 0000.0001) %MON pe_b_mean                    =  -1.0711325829309E-04
(PID.TID 0000.0001) %MON ke_max                       =   2.4878103839683E-05
(PID.TID 0000.0001) %MON ke_mean                      =   8.5533066586583E-06
(PID.TID 0000.0001) %MON ke_vol                       =   5.6340000000000E+16
(PID.TID 0000.0001) %MON vort_r_min                   =  -2.4885375537467E-08
(PID.TID 0000.0001) %MON vort_r_max                   =   2.4896131636614E-08
(PID.TID 0000.0001) %MON vort_a_mean                  =   1.0000000000000E-04
(PID.TID 0000.0001) %MON vort_a_sd                    =   8.7821939612910E-09
(PID.TID 0000.0001) %MON vort_p_mean                  =   1.0398839738941E-04
(PID.TID 0000.0001) %MON vort_p_sd                    =   3.0798697879547E-05
(PID.TID 0000.0001) %MON surfExpan_theta_mean         =   2.4312229021289E-09
(PID.TID 0000.0001) %MON surfExpan_salt_mean          =   4.2317816666944E-21
(PID.TID 0000.0001) // =======================================================
(PID.TID 0000.0001) // End MONITOR dynamic field statistics
(PID.TID 0000.0001) // =======================================================
 cg2d: Sum(rhs),rhsMax =  -1.14752651825256E-12  1.52556103271162E+00
(PID.TID 0000.0001)                    cg2d_init_res =    2.32163960596793E-01
(PID.TID 0000.0001)                       cg2d_iters =    33
(PID.TID 0000.0001)                         cg2d_res =    4.04405693991871E-14
(PID.TID 0000.0001) // =======================================================
(PID.TID 0000.0001) // Begin MONITOR dynamic field statistics
(PID.TID 0000.0001) // =======================================================
(PID.TID 0000.0001) %MON time_tsnumber                =                    33
(PID.TID 0000.0001) %MON time_secondsf                =   3.9600000000000E+04
(PID.TID 0000.0001) %MON dynstat_eta_max              =   3.9085735279443E-01
(PID.TID 0000.0001) %MON dynstat_eta_min              =  -3.9086608832969E-01
(PID.TID 0000.0001) %MON dynstat_eta_mean             =   1.8026712815051E-16
(PID.TID 0000.0001) %MON dynstat_eta_sd               =   1.7355314364184E-01
(PID.TID 0000.0001) %MON dynstat_eta_del2             =   1.2968493058350E-04
(PID.TID 0000.0001) %MON dynstat_uvel_max             =   6.1315518524947E-03
(PID.TID 0000.0001) %MON dynstat_uvel_min             =  -6.1315518524947E-03
(PID.TID 0000.0001) %MON dynstat_uvel_mean            =   3.7178775380711E-19
(PID.TID 0000.0001) %MON dynstat_uvel_sd              =   2.9300528172613E-03
(PID.TID 0000.0001) %MON dynstat_uvel_del2            =   1.2279030230507E-06
(PID.TID 0000.0001) %MON dynstat_vvel_max             =   6.1311089292175E-03
(PID.TID 0000.0001) %MON dynstat_vvel_min             =  -6.1311089292175E-03
(PID.TID 0000.0001) %MON dynstat_vvel_mean            =   7.0816715010877E-20
(PID.TID 0000.0001) %MON dynstat_vvel_sd              =   2.9301176353330E-03
(PID.TID 0000.0001) %MON dynstat_vvel_del2            =   1.2277423024912E-06
(PID.TID 0000.0001) %MON dynstat_wvel_max             =   3.4573645199299E-06
(PID.TID 0000.0001) %MON dynstat_wvel_min             =  -3.4570293272269E-06
(PID.TID 0000.0001) %MON dynstat_wvel_mean            =   1.1123540381025E-22
(PID.TID 0000.0001) %MON dynstat_wvel_sd              =   9.5342759906550E-07
(PID.TID 0000.0001) %MON dynstat_wvel_del2            =   4.3798914022955E-10
(PID.TID 0000.0001) %MON dynstat_theta_max            =   1.9987062886197E+01
(PID.TID 0000.0001) %MON dynstat_theta_min            =   6.0029730832837E+00
(PID.TID 0000.0001) %MON dynstat_theta_mean           =   1.1000000059522E+01
(PID.TID 0000.0001) %MON dynstat_theta_sd             =   5.3772368143510E+00
(PID.TID 0000.0001) %MON dynstat_theta_del2           =   3.8718252044202E-07
(PID.TID 0000.0001) %MON dynstat_salt_max             =   1.0000000000000E+01
(PID.TID 0000.0001) %MON dynstat_salt_min             =   1.0000000000000E+01
(PID.TID 0000.0001) %MON dynstat_salt_mean            =   1.0000000000000E+01
(PID.TID 0000.0001) %MON dynstat_salt_sd              =   0.0000000000000E+00
(PID.TID 0000.0001) %MON dynstat_salt_del2            =   0.0000000000000E+00
(PID.TID 0000.0001) %MON advcfl_uvel_max              =   7.3578622229937E-05
(PID.TID 0000.0001) %MON advcfl_vvel_max              =   7.3573307150610E-05
(PID.TID 0000.0001) %MON advcfl_wvel_max              =   1.6595349695664E-05
(PID.TID 0000.0001) %MON advcfl_W_hf_max              =   5.8747563037870E-06
(PID.TID 0000.0001) %MON pe_b_mean                    =  -1.0729879179746E-04
(PID.TID 0000.0001) %MON ke_max                       =   2.7997115566408E-05
(PID.TID 0000.0001) %MON ke_mean                      =   8.4055845367828E-06
(PID.TID 0000.0001) %MON ke_vol                       =   5.6340000000000E+16
(PID.TID 0000.0001) %MON vort_r_min                   =  -2.3336686712865E-08
(PID.TID 0000.0001) %MON vort_r_max                   =   2.3348800357307E-08
(PID.TID 0000.0001) %MON vort_a_mean                  =   1.0000000000000E-04
(PID.TID 0000.0001) %MON vort_a_sd                    =   8.6235119391585E-09
(PID.TID 0000.0001) %MON vort_p_mean                  =   1.0398839738941E-04
(PID.TID 0000.0001) %MON vort_p_sd                    =   3.0798697761526E-05
(PID.TID 0000.0001) %MON surfExpan_theta_mean         =  -7.4775173353189E-10
(PID.TID 0000.0001) %MON surfExpan_salt_mean          =   1.5869181250104E-21
(PID.TID 0000.0001) // =======================================================
(PID.TID 0000.0001) // End MONITOR dynamic field statistics
(PID.TID 0000.0001) // =======================================================
 cg2d: Sum(rhs),rhsMax =  -1.16173737296776E-12  1.55778359458532E+00
(PID.TID 0000.0001)                    cg2d_init_res =    4.80561052300843E-01
(PID.TID 0000.0001)                       cg2d_iters =    33
(PID.TID 0000.0001)                         cg2d_res =    3.64786534021061E-14
(PID.TID 0000.0001) // =======================================================
(PID.TID 0000.0001) // Begin MONITOR dynamic field statistics
(PID.TID 0000.0001) // =======================================================
(PID.TID 0000.0001) %MON time_tsnumber                =                    34
(PID.TID 0000.0001) %MON time_secondsf                =   4.0800000000000E+04
(PID.TID 0000.0001) %MON dynstat_eta_max              =   3.9915435416565E-01
(PID.TID 0000.0001) %MON dynstat_eta_min              =  -3.9916327660654E-01
(PID.TID 0000.0001) %MON dynstat_eta_mean             =   1.9690717074902E-16
(PID.TID 0000.0001) %MON dynstat_eta_sd               =   1.7680287336680E-01
(PID.TID 0000.0001) %MON dynstat_eta_del2             =   1.3208573008259E-04
(PID.TID 0000.0001) %MON dynstat_uvel_max             =   6.9858229885083E-03
(PID.TID 0000.0001) %MON dynstat_uvel_min             =  -6.9858229885082E-03
(PID.TID 0000.0001) %MON dynstat_uvel_mean            =   1.3809259427121E-18
(PID.TID 0000.0001) %MON dynstat_uvel_sd              =   3.0130984720188E-03
(PID.TID 0000.0001) %MON dynstat_uvel_del2            =   1.2615860443214E-06
(PID.TID 0000.0001) %MON dynstat_vvel_max             =   6.9857417633301E-03
(PID.TID 0000.0001) %MON dynstat_vvel_min             =  -6.9857417633301E-03
(PID.TID 0000.0001) %MON dynstat_vvel_mean            =   1.0622507251632E-18
(PID.TID 0000.0001) %MON dynstat_vvel_sd              =   3.0131815446845E-03
(PID.TID 0000.0001) %MON dynstat_vvel_del2            =   1.2613425320612E-06
(PID.TID 0000.0001) %MON dynstat_wvel_max             =   7.1251704430899E-06
(PID.TID 0000.0001) %MON dynstat_wvel_min             =  -7.1256186834419E-06
(PID.TID 0000.0001) %MON dynstat_wvel_mean            =  -1.5476230095340E-22
(PID.TID 0000.0001) %MON dynstat_wvel_sd              =   1.9155180747000E-06
(PID.TID 0000.0001) %MON dynstat_wvel_del2            =   8.3551900548585E-10
(PID.TID 0000.0001) %MON dynstat_theta_max            =   1.9986633143072E+01
(PID.TID 0000.0001) %MON dynstat_theta_min            =   6.0030655664736E+00
(PID.TID 0000.0001) %MON dynstat_theta_mean           =   1.1000000061115E+01
(PID.TID 0000.0001) %MON dynstat_theta_sd             =   5.3769969986773E+00
(PID.TID 0000.0001) %MON dynstat_theta_del2           =   3.9306427054599E-07
(PID.TID 0000.0001) %MON dynstat_salt_max             =   1.0000000000000E+01
(PID.TID 0000.0001) %MON dynstat_salt_min             =   1.0000000000000E+01
(PID.TID 0000.0001) %MON dynstat_salt_mean            =   1.0000000000000E+01
(PID.TID 0000.0001) %MON dynstat_salt_sd              =   0.0000000000000E+00
(PID.TID 0000.0001) %MON dynstat_salt_del2            =   0.0000000000000E+00
(PID.TID 0000.0001) %MON advcfl_uvel_max              =   8.3829875862100E-05
(PID.TID 0000.0001) %MON advcfl_vvel_max              =   8.3828901159961E-05
(PID.TID 0000.0001) %MON advcfl_wvel_max              =   3.4202969680521E-05
(PID.TID 0000.0001) %MON advcfl_W_hf_max              =   1.2998582293005E-05
(PID.TID 0000.0001) %MON pe_b_mean                    =  -1.0805143012514E-04
(PID.TID 0000.0001) %MON ke_max                       =   3.2711909897548E-05
(PID.TID 0000.0001) %MON ke_mean                      =   8.8888594457735E-06
(PID.TID 0000.0001) %MON ke_vol                       =   5.6340000000000E+16
(PID.TID 0000.0001) %MON vort_r_min                   =  -2.1329506594486E-08
(PID.TID 0000.0001) %MON vort_r_max                   =   2.1345239136750E-08
(PID.TID 0000.0001) %MON vort_a_mean                  =   1.0000000000000E-04
(PID.TID 0000.0001) %MON vort_a_sd                    =   8.6564429087429E-09
(PID.TID 0000.0001) %MON vort_p_mean                  =   1.0398839738941E-04
(PID.TID 0000.0001) %MON vort_p_sd                    =   3.0798697730906E-05
(PID.TID 0000.0001) %MON surfExpan_theta_mean         =  -3.5155506234049E-09
(PID.TID 0000.0001) %MON surfExpan_salt_mean          =   1.9836476562630E-21
(PID.TID 0000.0001) // =======================================================
(PID.TID 0000.0001) // End MONITOR dynamic field statistics
(PID.TID 0000.0001) // =======================================================
 cg2d: Sum(rhs),rhsMax =  -1.06936681731895E-12  1.60731178792399E+00
(PID.TID 0000.0001)                    cg2d_init_res =    7.14112031794414E-01
(PID.TID 0000.0001)                       cg2d_iters =    33
(PID.TID 0000.0001)                         cg2d_res =    4.04010626646696E-14
(PID.TID 0000.0001) // =======================================================
(PID.TID 0000.0001) // Begin MONITOR dynamic field statistics
(PID.TID 0000.0001) // =======================================================
(PID.TID 0000.0001) %MON time_tsnumber                =                    35
(PID.TID 0000.0001) %MON time_secondsf                =   4.2000000000000E+04
(PID.TID 0000.0001) %MON dynstat_eta_max              =   4.1181334976882E-01
(PID.TID 0000.0001) %MON dynstat_eta_min              =  -4.1182277363749E-01
(PID.TID 0000.0001) %MON dynstat_eta_mean             =   1.9468849840256E-16
(PID.TID 0000.0001) %MON dynstat_eta_sd               =   1.8189002369585E-01
(PID.TID 0000.0001) %MON dynstat_eta_del2             =   1.3611185845495E-04
(PID.TID 0000.0001) %MON dynstat_uvel_max             =   7.7296448596385E-03
(PID.TID 0000.0001) %MON dynstat_uvel_min             =  -7.7296448596386E-03
(PID.TID 0000.0001) %MON dynstat_uvel_mean            =   1.5933760877447E-18
(PID.TID 0000.0001) %MON dynstat_uvel_sd              =   3.1551917861617E-03
(PID.TID 0000.0001) %MON dynstat_uvel_del2            =   1.3266712827805E-06
(PID.TID 0000.0001) %MON dynstat_vvel_max             =   7.7298502051032E-03
(PID.TID 0000.0001) %MON dynstat_vvel_min             =  -7.7298502051031E-03
(PID.TID 0000.0001) %MON dynstat_vvel_mean            =  -7.0816715010877E-19
(PID.TID 0000.0001) %MON dynstat_vvel_sd              =   3.1552982449337E-03
(PID.TID 0000.0001) %MON dynstat_vvel_del2            =   1.3263789062380E-06
(PID.TID 0000.0001) %MON dynstat_wvel_max             =   1.1002664157794E-05
(PID.TID 0000.0001) %MON dynstat_wvel_min             =  -1.1003286334281E-05
(PID.TID 0000.0001) %MON dynstat_wvel_mean            =  -1.9345287619174E-23
(PID.TID 0000.0001) %MON dynstat_wvel_sd              =   2.9048817721598E-06
(PID.TID 0000.0001) %MON dynstat_wvel_del2            =   1.2795740287651E-09
(PID.TID 0000.0001) %MON dynstat_theta_max            =   1.9986245052087E+01
(PID.TID 0000.0001) %MON dynstat_theta_min            =   6.0031552690642E+00
(PID.TID 0000.0001) %MON dynstat_theta_mean           =   1.1000000064221E+01
(PID.TID 0000.0001) %MON dynstat_theta_sd             =   5.3767572106178E+00
(PID.TID 0000.0001) %MON dynstat_theta_del2           =   4.0459829268599E-07
(PID.TID 0000.0001) %MON dynstat_salt_max             =   1.0000000000000E+01
(PID.TID 0000.0001) %MON dynstat_salt_min             =   1.0000000000000E+01
(PID.TID 0000.0001) %MON dynstat_salt_mean            =   1.0000000000000E+01
(PID.TID 0000.0001) %MON dynstat_salt_sd              =   0.0000000000000E+00
(PID.TID 0000.0001) %MON dynstat_salt_del2            =   0.0000000000000E+00
(PID.TID 0000.0001) %MON advcfl_uvel_max              =   9.2755738315663E-05
(PID.TID 0000.0001) %MON advcfl_vvel_max              =   9.2758202461239E-05
(PID.TID 0000.0001) %MON advcfl_wvel_max              =   5.2815774404547E-05
(PID.TID 0000.0001) %MON advcfl_W_hf_max              =   1.9995368317125E-05
(PID.TID 0000.0001) %MON pe_b_mean                    =  -1.0911206028655E-04
(PID.TID 0000.0001) %MON ke_max                       =   3.8099462720148E-05
(PID.TID 0000.0001) %MON ke_mean                      =   9.7470589719775E-06
(PID.TID 0000.0001) %MON ke_vol                       =   5.6340000000000E+16
(PID.TID 0000.0001) %MON vort_r_min                   =  -2.0406375914407E-08
(PID.TID 0000.0001) %MON vort_r_max                   =   2.0409779169926E-08
(PID.TID 0000.0001) %MON vort_a_mean                  =   1.0000000000000E-04
(PID.TID 0000.0001) %MON vort_a_sd                    =   8.8415537498721E-09
(PID.TID 0000.0001) %MON vort_p_mean                  =   1.0398839738941E-04
(PID.TID 0000.0001) %MON vort_p_sd                    =   3.0798697768972E-05
(PID.TID 0000.0001) %MON surfExpan_theta_mean         =  -5.6561795748165E-09
(PID.TID 0000.0001) %MON surfExpan_salt_mean          =   1.1637399583410E-20
(PID.TID 0000.0001) // =======================================================
(PID.TID 0000.0001) // End MONITOR dynamic field statistics
(PID.TID 0000.0001) // =======================================================
 cg2d: Sum(rhs),rhsMax =  -1.10489395410696E-12  1.66565240094487E+00
(PID.TID 0000.0001)                    cg2d_init_res =    8.25037543686462E-01
(PID.TID 0000.0001)                       cg2d_iters =    33
(PID.TID 0000.0001)                         cg2d_res =    4.63896898125404E-14
(PID.TID 0000.0001) // =======================================================
(PID.TID 0000.0001) // Begin MONITOR dynamic field statistics
(PID.TID 0000.0001) // =======================================================
(PID.TID 0000.0001) %MON time_tsnumber                =                    36
(PID.TID 0000.0001) %MON time_secondsf                =   4.3200000000000E+04
(PID.TID 0000.0001) %MON dynstat_eta_max              =   4.2668205724695E-01
(PID.TID 0000.0001) %MON dynstat_eta_min              =  -4.2669212672410E-01
(PID.TID 0000.0001) %MON dynstat_eta_mean             =   1.7638445154420E-16
(PID.TID 0000.0001) %MON dynstat_eta_sd               =   1.8793709145107E-01
(PID.TID 0000.0001) %MON dynstat_eta_del2             =   1.4103245171214E-04
(PID.TID 0000.0001) %MON dynstat_uvel_max             =   8.2461717800947E-03
(PID.TID 0000.0001) %MON dynstat_uvel_min             =  -8.2461717800947E-03
(PID.TID 0000.0001) %MON dynstat_uvel_mean            =   2.5139933828861E-18
(PID.TID 0000.0001) %MON dynstat_uvel_sd              =   3.3045394161309E-03
(PID.TID 0000.0001) %MON dynstat_uvel_del2            =   1.3934367830757E-06
(PID.TID 0000.0001) %MON dynstat_vvel_max             =   8.2465330706631E-03
(PID.TID 0000.0001) %MON dynstat_vvel_min             =  -8.2465330706629E-03
(PID.TID 0000.0001) %MON dynstat_vvel_mean            =  -1.0622507251632E-18
(PID.TID 0000.0001) %MON dynstat_vvel_sd              =   3.3046636097593E-03
(PID.TID 0000.0001) %MON dynstat_vvel_del2            =   1.3931267207363E-06
(PID.TID 0000.0001) %MON dynstat_wvel_max             =   1.3015597097998E-05
(PID.TID 0000.0001) %MON dynstat_wvel_min             =  -1.3016205744136E-05
(PID.TID 0000.0001) %MON dynstat_wvel_mean            =   4.6428690286019E-22
(PID.TID 0000.0001) %MON dynstat_wvel_sd              =   3.4721893966110E-06
(PID.TID 0000.0001) %MON dynstat_wvel_del2            =   1.5317709842487E-09
(PID.TID 0000.0001) %MON dynstat_theta_max            =   1.9985881794185E+01
(PID.TID 0000.0001) %MON dynstat_theta_min            =   6.0032433107033E+00
(PID.TID 0000.0001) %MON dynstat_theta_mean           =   1.1000000068385E+01
(PID.TID 0000.0001) %MON dynstat_theta_sd             =   5.3765174493490E+00
(PID.TID 0000.0001) %MON dynstat_theta_del2           =   4.1968480886482E-07
(PID.TID 0000.0001) %MON dynstat_salt_max             =   1.0000000000000E+01
(PID.TID 0000.0001) %MON dynstat_salt_min             =   1.0000000000000E+01
(PID.TID 0000.0001) %MON dynstat_salt_mean            =   1.0000000000000E+01
(PID.TID 0000.0001) %MON dynstat_salt_sd              =   0.0000000000000E+00
(PID.TID 0000.0001) %MON dynstat_salt_del2            =   0.0000000000000E+00
(PID.TID 0000.0001) %MON advcfl_uvel_max              =   9.8954061361137E-05
(PID.TID 0000.0001) %MON advcfl_vvel_max              =   9.8958396847957E-05
(PID.TID 0000.0001) %MON advcfl_wvel_max              =   6.2477787571853E-05
(PID.TID 0000.0001) %MON advcfl_W_hf_max              =   2.3631938702044E-05
(PID.TID 0000.0001) %MON pe_b_mean                    =  -1.1019586215671E-04
(PID.TID 0000.0001) %MON ke_max                       =   4.3061074622252E-05
(PID.TID 0000.0001) %MON ke_mean                      =   1.0691671575487E-05
(PID.TID 0000.0001) %MON ke_vol                       =   5.6340000000000E+16
(PID.TID 0000.0001) %MON vort_r_min                   =  -2.1135938355346E-08
(PID.TID 0000.0001) %MON vort_r_max                   =   2.1139590330654E-08
(PID.TID 0000.0001) %MON vort_a_mean                  =   1.0000000000000E-04
(PID.TID 0000.0001) %MON vort_a_sd                    =   9.1183994786267E-09
(PID.TID 0000.0001) %MON vort_p_mean                  =   1.0398839738941E-04
(PID.TID 0000.0001) %MON vort_p_sd                    =   3.0798697849801E-05
(PID.TID 0000.0001) %MON surfExpan_theta_mean         =  -6.9620711470099E-09
(PID.TID 0000.0001) %MON surfExpan_salt_mean          =   1.5869181250104E-21
(PID.TID 0000.0001) // =======================================================
(PID.TID 0000.0001) // End MONITOR dynamic field statistics
(PID.TID 0000.0001) // =======================================================
 Computing Diagnostic #     26  THETA        Counter:      36   Parms: SMR     MR      
 Computing Diagnostic #     33  THETASQ      Counter:      36   Parms: SMRP    MR      
 cg2d: Sum(rhs),rhsMax =  -8.56203996590921E-13  1.72409307521831E+00
(PID.TID 0000.0001)                    cg2d_init_res =    8.17160699328060E-01
(PID.TID 0000.0001)                       cg2d_iters =    33
(PID.TID 0000.0001)                         cg2d_res =    5.04741037250958E-14
(PID.TID 0000.0001) // =======================================================
(PID.TID 0000.0001) // Begin MONITOR dynamic field statistics
(PID.TID 0000.0001) // =======================================================
(PID.TID 0000.0001) %MON time_tsnumber                =                    37
(PID.TID 0000.0001) %MON time_secondsf                =   4.4400000000000E+04
(PID.TID 0000.0001) %MON dynstat_eta_max              =   4.4155303163952E-01
(PID.TID 0000.0001) %MON dynstat_eta_min              =  -4.4156380094528E-01
(PID.TID 0000.0001) %MON dynstat_eta_mean             =   1.8747781327654E-16
(PID.TID 0000.0001) %MON dynstat_eta_sd               =   1.9403468524301E-01
(PID.TID 0000.0001) %MON dynstat_eta_del2             =   1.4607905993178E-04
(PID.TID 0000.0001) %MON dynstat_uvel_max             =   8.4826672482780E-03
(PID.TID 0000.0001) %MON dynstat_uvel_min             =  -8.4826672482780E-03
(PID.TID 0000.0001) %MON dynstat_uvel_mean            =   4.9571700507614E-19
(PID.TID 0000.0001) %MON dynstat_uvel_sd              =   3.4284287063832E-03
(PID.TID 0000.0001) %MON dynstat_uvel_del2            =   1.4440796701412E-06
(PID.TID 0000.0001) %MON dynstat_vvel_max             =   8.4831430045380E-03
(PID.TID 0000.0001) %MON dynstat_vvel_min             =  -8.4831430045378E-03
(PID.TID 0000.0001) %MON dynstat_vvel_mean            =  -6.3735043509790E-19
(PID.TID 0000.0001) %MON dynstat_vvel_sd              =   3.4285578542773E-03
(PID.TID 0000.0001) %MON dynstat_vvel_del2            =   1.4437752047194E-06
(PID.TID 0000.0001) %MON dynstat_wvel_max             =   1.3115211087287E-05
(PID.TID 0000.0001) %MON dynstat_wvel_min             =  -1.3115716795855E-05
(PID.TID 0000.0001) %MON dynstat_wvel_mean            =  -2.7083402666844E-22
(PID.TID 0000.0001) %MON dynstat_wvel_sd              =   3.5670083622425E-06
(PID.TID 0000.0001) %MON dynstat_wvel_del2            =   1.5621772456044E-09
(PID.TID 0000.0001) %MON dynstat_theta_max            =   1.9985525489637E+01
(PID.TID 0000.0001) %MON dynstat_theta_min            =   6.0033308859563E+00
(PID.TID 0000.0001) %MON dynstat_theta_mean           =   1.1000000073032E+01
(PID.TID 0000.0001) %MON dynstat_theta_sd             =   5.3762777138588E+00
(PID.TID 0000.0001) %MON dynstat_theta_del2           =   4.3598654189409E-07
(PID.TID 0000.0001) %MON dynstat_salt_max             =   1.0000000000000E+01
(PID.TID 0000.0001) %MON dynstat_salt_min             =   1.0000000000000E+01
(PID.TID 0000.0001) %MON dynstat_salt_mean            =   1.0000000000000E+01
(PID.TID 0000.0001) %MON dynstat_salt_sd              =   0.0000000000000E+00
(PID.TID 0000.0001) %MON dynstat_salt_del2            =   0.0000000000000E+00
(PID.TID 0000.0001) %MON advcfl_uvel_max              =   1.0179200697934E-04
(PID.TID 0000.0001) %MON advcfl_vvel_max              =   1.0179771605446E-04
(PID.TID 0000.0001) %MON advcfl_wvel_max              =   6.2955440620106E-05
(PID.TID 0000.0001) %MON advcfl_W_hf_max              =   2.3820419972054E-05
(PID.TID 0000.0001) %MON pe_b_mean                    =  -1.1109769841481E-04
(PID.TID 0000.0001) %MON ke_max                       =   4.6956458830897E-05
(PID.TID 0000.0001) %MON ke_mean                      =   1.1508375405530E-05
(PID.TID 0000.0001) %MON ke_vol                       =   5.6340000000000E+16
(PID.TID 0000.0001) %MON vort_r_min                   =  -2.1908155875442E-08
(PID.TID 0000.0001) %MON vort_r_max                   =   2.1912089000490E-08
(PID.TID 0000.0001) %MON vort_a_mean                  =   1.0000000000000E-04
(PID.TID 0000.0001) %MON vort_a_sd                    =   9.4239378957600E-09
(PID.TID 0000.0001) %MON vort_p_mean                  =   1.0398839738941E-04
(PID.TID 0000.0001) %MON vort_p_sd                    =   3.0798697946346E-05
(PID.TID 0000.0001) %MON surfExpan_theta_mean         =  -7.2785160838584E-09
(PID.TID 0000.0001) %MON surfExpan_salt_mean          =   5.2897270833680E-21
(PID.TID 0000.0001) // =======================================================
(PID.TID 0000.0001) // End MONITOR dynamic field statistics
(PID.TID 0000.0001) // =======================================================
 Compute Stats, Diag. #     23  ETAN      vol(   0 ): 2.817E+13  Parms: SM      M1      
 Compute Stats, Diag. #    136  momKE     vol(   0 ): 5.634E+16  Parms: SMR     MR      
 Compute Stats, Diag. #     26  THETA     vol(   0 ): 5.634E+16  Parms: SMR     MR      
 Compute Stats, Diag. #     33  THETASQ   vol(   0 ): 5.634E+16  Parms: SMRP    MR      
 cg2d: Sum(rhs),rhsMax =  -1.05337960576435E-12  1.77490277980756E+00
(PID.TID 0000.0001)                    cg2d_init_res =    7.18461182496578E-01
(PID.TID 0000.0001)                       cg2d_iters =    33
(PID.TID 0000.0001)                         cg2d_res =    5.12872807248344E-14
(PID.TID 0000.0001) // =======================================================
(PID.TID 0000.0001) // Begin MONITOR dynamic field statistics
(PID.TID 0000.0001) // =======================================================
(PID.TID 0000.0001) %MON time_tsnumber                =                    38
(PID.TID 0000.0001) %MON time_secondsf                =   4.5600000000000E+04
(PID.TID 0000.0001) %MON dynstat_eta_max              =   4.5446715990890E-01
(PID.TID 0000.0001) %MON dynstat_eta_min              =  -4.5447864471853E-01
(PID.TID 0000.0001) %MON dynstat_eta_mean             =   1.3644834930777E-16
(PID.TID 0000.0001) %MON dynstat_eta_sd               =   1.9936607902451E-01
(PID.TID 0000.0001) %MON dynstat_eta_del2             =   1.5055420774314E-04
(PID.TID 0000.0001) %MON dynstat_uvel_max             =   8.4520504981142E-03
(PID.TID 0000.0001) %MON dynstat_uvel_min             =  -8.4520504981142E-03
(PID.TID 0000.0001) %MON dynstat_uvel_mean            =   2.1245014503263E-19
(PID.TID 0000.0001) %MON dynstat_uvel_sd              =   3.5156300007176E-03
(PID.TID 0000.0001) %MON dynstat_uvel_del2            =   1.4740413574275E-06
(PID.TID 0000.0001) %MON dynstat_vvel_max             =   8.4526133672033E-03
(PID.TID 0000.0001) %MON dynstat_vvel_min             =  -8.4526133672034E-03
(PID.TID 0000.0001) %MON dynstat_vvel_mean            =   4.9571700507614E-19
(PID.TID 0000.0001) %MON dynstat_vvel_sd              =   3.5157493788820E-03
(PID.TID 0000.0001) %MON dynstat_vvel_del2            =   1.4737593535764E-06
(PID.TID 0000.0001) %MON dynstat_wvel_max             =   1.1513822707168E-05
(PID.TID 0000.0001) %MON dynstat_wvel_min             =  -1.1514211683992E-05
(PID.TID 0000.0001) %MON dynstat_wvel_mean            =   4.2559632762184E-22
(PID.TID 0000.0001) %MON dynstat_wvel_sd              =   3.2485330735990E-06
(PID.TID 0000.0001) %MON dynstat_wvel_del2            =   1.3920687392301E-09
(PID.TID 0000.0001) %MON dynstat_theta_max            =   1.9985159367123E+01
(PID.TID 0000.0001) %MON dynstat_theta_min            =   6.0034191155792E+00
(PID.TID 0000.0001) %MON dynstat_theta_mean           =   1.1000000077513E+01
(PID.TID 0000.0001) %MON dynstat_theta_sd             =   5.3760380030452E+00
(PID.TID 0000.0001) %MON dynstat_theta_del2           =   4.5126460842156E-07
(PID.TID 0000.0001) %MON dynstat_salt_max             =   1.0000000000000E+01
(PID.TID 0000.0001) %MON dynstat_salt_min             =   1.0000000000000E+01
(PID.TID 0000.0001) %MON dynstat_salt_mean            =   1.0000000000000E+01
(PID.TID 0000.0001) %MON dynstat_salt_sd              =   0.0000000000000E+00
(PID.TID 0000.0001) %MON dynstat_salt_del2            =   0.0000000000000E+00
(PID.TID 0000.0001) %MON advcfl_uvel_max              =   1.0142460597737E-04
(PID.TID 0000.0001) %MON advcfl_vvel_max              =   1.0143136040644E-04
(PID.TID 0000.0001) %MON advcfl_wvel_max              =   5.5268216083160E-05
(PID.TID 0000.0001) %MON advcfl_W_hf_max              =   2.0943045793837E-05
(PID.TID 0000.0001) %MON pe_b_mean                    =  -1.1173451041586E-04
(PID.TID 0000.0001) %MON ke_max                       =   4.9575947795860E-05
(PID.TID 0000.0001) %MON ke_mean                      =   1.2101201309173E-05
(PID.TID 0000.0001) %MON ke_vol                       =   5.6340000000000E+16
(PID.TID 0000.0001) %MON vort_r_min                   =  -2.2613006315162E-08
(PID.TID 0000.0001) %MON vort_r_max                   =   2.2617208576858E-08
(PID.TID 0000.0001) %MON vort_a_mean                  =   1.0000000000000E-04
(PID.TID 0000.0001) %MON vort_a_sd                    =   9.7048987265181E-09
(PID.TID 0000.0001) %MON vort_p_mean                  =   1.0398839738941E-04
(PID.TID 0000.0001) %MON vort_p_sd                    =   3.0798698035077E-05
(PID.TID 0000.0001) %MON surfExpan_theta_mean         =  -6.5741053254523E-09
(PID.TID 0000.0001) %MON surfExpan_salt_mean          =   5.2897270833680E-21
(PID.TID 0000.0001) // =======================================================
(PID.TID 0000.0001) // End MONITOR dynamic field statistics
(PID.TID 0000.0001) // =======================================================
 cg2d: Sum(rhs),rhsMax =  -9.62785406954936E-13  1.81224880027377E+00
(PID.TID 0000.0001)                    cg2d_init_res =    5.67116710117604E-01
(PID.TID 0000.0001)                       cg2d_iters =    33
(PID.TID 0000.0001)                         cg2d_res =    4.94245357556225E-14
(PID.TID 0000.0001) // =======================================================
(PID.TID 0000.0001) // Begin MONITOR dynamic field statistics
(PID.TID 0000.0001) // =======================================================
(PID.TID 0000.0001) %MON time_tsnumber                =                    39
(PID.TID 0000.0001) %MON time_secondsf                =   4.6800000000000E+04
(PID.TID 0000.0001) %MON dynstat_eta_max              =   4.6394582332626E-01
(PID.TID 0000.0001) %MON dynstat_eta_min              =  -4.6395799740947E-01
(PID.TID 0000.0001) %MON dynstat_eta_mean             =   1.4338170039049E-16
(PID.TID 0000.0001) %MON dynstat_eta_sd               =   2.0330876332929E-01
(PID.TID 0000.0001) %MON dynstat_eta_del2             =   1.5392076217616E-04
(PID.TID 0000.0001) %MON dynstat_uvel_max             =   8.1853752632886E-03
(PID.TID 0000.0001) %MON dynstat_uvel_min             =  -8.1853752632886E-03
(PID.TID 0000.0001) %MON dynstat_uvel_mean            =   1.0622507251632E-18
(PID.TID 0000.0001) %MON dynstat_uvel_sd              =   3.5691743280414E-03
(PID.TID 0000.0001) %MON dynstat_uvel_del2            =   1.4873442913053E-06
(PID.TID 0000.0001) %MON dynstat_vvel_max             =   8.1860870391663E-03
(PID.TID 0000.0001) %MON dynstat_vvel_min             =  -8.1860870391664E-03
(PID.TID 0000.0001) %MON dynstat_vvel_mean            =  -2.9743020304569E-18
(PID.TID 0000.0001) %MON dynstat_vvel_sd              =   3.5692720746426E-03
(PID.TID 0000.0001) %MON dynstat_vvel_del2            =   1.4870970544362E-06
(PID.TID 0000.0001) %MON dynstat_wvel_max             =   8.6787796706276E-06
(PID.TID 0000.0001) %MON dynstat_wvel_min             =  -8.6790297608044E-06
(PID.TID 0000.0001) %MON dynstat_wvel_mean            =   3.8690575238349E-22
(PID.TID 0000.0001) %MON dynstat_wvel_sd              =   2.6553228266962E-06
(PID.TID 0000.0001) %MON dynstat_wvel_del2            =   1.0751794832149E-09
(PID.TID 0000.0001) %MON dynstat_theta_max            =   1.9984769877684E+01
(PID.TID 0000.0001) %MON dynstat_theta_min            =   6.0035089052992E+00
(PID.TID 0000.0001) %MON dynstat_theta_mean           =   1.1000000081204E+01
(PID.TID 0000.0001) %MON dynstat_theta_sd             =   5.3757983158802E+00
(PID.TID 0000.0001) %MON dynstat_theta_del2           =   4.6367705627594E-07
(PID.TID 0000.0001) %MON dynstat_salt_max             =   1.0000000000000E+01
(PID.TID 0000.0001) %MON dynstat_salt_min             =   1.0000000000000E+01
(PID.TID 0000.0001) %MON dynstat_salt_mean            =   1.0000000000000E+01
(PID.TID 0000.0001) %MON dynstat_salt_sd              =   0.0000000000000E+00
(PID.TID 0000.0001) %MON dynstat_salt_del2            =   0.0000000000000E+00
(PID.TID 0000.0001) %MON advcfl_uvel_max              =   9.8224503159463E-05
(PID.TID 0000.0001) %MON advcfl_vvel_max              =   9.8233044469997E-05
(PID.TID 0000.0001) %MON advcfl_wvel_max              =   4.1659342851861E-05
(PID.TID 0000.0001) %MON advcfl_W_hf_max              =   1.5830874417433E-05
(PID.TID 0000.0001) %MON pe_b_mean                    =  -1.1212337729618E-04
(PID.TID 0000.0001) %MON ke_max                       =   5.1040130725846E-05
(PID.TID 0000.0001) %MON ke_mean                      =   1.2472537826915E-05
(PID.TID 0000.0001) %MON ke_vol                       =   5.6340000000000E+16
(PID.TID 0000.0001) %MON vort_r_min                   =  -2.3161914796597E-08
(PID.TID 0000.0001) %MON vort_r_max                   =   2.3166331229527E-08
(PID.TID 0000.0001) %MON vort_a_mean                  =   1.0000000000000E-04
(PID.TID 0000.0001) %MON vort_a_sd                    =   9.9229205609821E-09
(PID.TID 0000.0001) %MON vort_p_mean                  =   1.0398839738941E-04
(PID.TID 0000.0001) %MON vort_p_sd                    =   3.0798698098514E-05
(PID.TID 0000.0001) %MON surfExpan_theta_mean         =  -4.9878372418064E-09
(PID.TID 0000.0001) %MON surfExpan_salt_mean          =  -3.1738362500208E-21
(PID.TID 0000.0001) // =======================================================
(PID.TID 0000.0001) // End MONITOR dynamic field statistics
(PID.TID 0000.0001) // =======================================================
 cg2d: Sum(rhs),rhsMax =  -8.01136934569513E-13  1.83274269912867E+00
(PID.TID 0000.0001)                    cg2d_init_res =    4.11763515168674E-01
(PID.TID 0000.0001)                       cg2d_iters =    33
(PID.TID 0000.0001)                         cg2d_res =    4.61618479279083E-14
(PID.TID 0000.0001) // =======================================================
(PID.TID 0000.0001) // Begin MONITOR dynamic field statistics
(PID.TID 0000.0001) // =======================================================
(PID.TID 0000.0001) %MON time_tsnumber                =                    40
(PID.TID 0000.0001) %MON time_secondsf                =   4.8000000000000E+04
(PID.TID 0000.0001) %MON dynstat_eta_max              =   4.6912941040309E-01
(PID.TID 0000.0001) %MON dynstat_eta_min              =  -4.6914216350942E-01
(PID.TID 0000.0001) %MON dynstat_eta_mean             =   1.2868299609514E-16
(PID.TID 0000.0001) %MON dynstat_eta_sd               =   2.0549875078407E-01
(PID.TID 0000.0001) %MON dynstat_eta_del2             =   1.5585889627772E-04
(PID.TID 0000.0001) %MON dynstat_uvel_max             =   7.7414910827115E-03
(PID.TID 0000.0001) %MON dynstat_uvel_min             =  -7.7414910827115E-03
(PID.TID 0000.0001) %MON dynstat_uvel_mean            =  -2.8326686004351E-19
(PID.TID 0000.0001) %MON dynstat_uvel_sd              =   3.5970578305533E-03
(PID.TID 0000.0001) %MON dynstat_uvel_del2            =   1.4907028862360E-06
(PID.TID 0000.0001) %MON dynstat_vvel_max             =   7.7421558729375E-03
(PID.TID 0000.0001) %MON dynstat_vvel_min             =  -7.7421558729375E-03
(PID.TID 0000.0001) %MON dynstat_vvel_mean            =  -1.6287844452502E-18
(PID.TID 0000.0001) %MON dynstat_vvel_sd              =   3.5971282187660E-03
(PID.TID 0000.0001) %MON dynstat_vvel_del2            =   1.4904986525176E-06
(PID.TID 0000.0001) %MON dynstat_wvel_max             =   6.4209024089747E-06
(PID.TID 0000.0001) %MON dynstat_wvel_min             =  -6.4220012872673E-06
(PID.TID 0000.0001) %MON dynstat_wvel_mean            =   7.7381150476698E-22
(PID.TID 0000.0001) %MON dynstat_wvel_sd              =   2.0094715946495E-06
(PID.TID 0000.0001) %MON dynstat_wvel_del2            =   6.9550863679174E-10
(PID.TID 0000.0001) %MON dynstat_theta_max            =   1.9984348109150E+01
(PID.TID 0000.0001) %MON dynstat_theta_min            =   6.0036008512880E+00
(PID.TID 0000.0001) %MON dynstat_theta_mean           =   1.1000000083626E+01
(PID.TID 0000.0001) %MON dynstat_theta_sd             =   5.3755586515921E+00
(PID.TID 0000.0001) %MON dynstat_theta_del2           =   4.7199327798195E-07
(PID.TID 0000.0001) %MON dynstat_salt_max             =   1.0000000000000E+01
(PID.TID 0000.0001) %MON dynstat_salt_min             =   1.0000000000000E+01
(PID.TID 0000.0001) %MON dynstat_salt_mean            =   1.0000000000000E+01
(PID.TID 0000.0001) %MON dynstat_salt_sd              =   0.0000000000000E+00
(PID.TID 0000.0001) %MON dynstat_salt_del2            =   0.0000000000000E+00
(PID.TID 0000.0001) %MON advcfl_uvel_max              =   9.2897892992538E-05
(PID.TID 0000.0001) %MON advcfl_vvel_max              =   9.2905870475250E-05
(PID.TID 0000.0001) %MON advcfl_wvel_max              =   3.0825606178883E-05
(PID.TID 0000.0001) %MON advcfl_W_hf_max              =   1.2000155427219E-05
(PID.TID 0000.0001) %MON pe_b_mean                    =  -1.1232460705620E-04
(PID.TID 0000.0001) %MON ke_max                       =   5.1599360615407E-05
(PID.TID 0000.0001) %MON ke_mean                      =   1.2668078720764E-05
(PID.TID 0000.0001) %MON ke_vol                       =   5.6340000000000E+16
(PID.TID 0000.0001) %MON vort_r_min                   =  -2.3500901436632E-08
(PID.TID 0000.0001) %MON vort_r_max                   =   2.3505755815306E-08
(PID.TID 0000.0001) %MON vort_a_mean                  =   1.0000000000000E-04
(PID.TID 0000.0001) %MON vort_a_sd                    =   1.0055091340577E-08
(PID.TID 0000.0001) %MON vort_p_mean                  =   1.0398839738941E-04
(PID.TID 0000.0001) %MON vort_p_sd                    =   3.0798698125960E-05
(PID.TID 0000.0001) %MON surfExpan_theta_mean         =  -2.8201804987137E-09
(PID.TID 0000.0001) %MON surfExpan_salt_mean          =  -2.1158908333472E-21
(PID.TID 0000.0001) // =======================================================
(PID.TID 0000.0001) // End MONITOR dynamic field statistics
(PID.TID 0000.0001) // =======================================================
(PID.TID 0000.0001) DIAGSTATS_CLOSE_IO: close file: dynStDiag.0000000000.txt , unit=     9
(PID.TID 0000.0001) %CHECKPOINT        40 ckptA
(PID.TID 0000.0001)   Seconds in section "ALL                    [THE_MODEL_MAIN]":
(PID.TID 0000.0001)           User time:  9.34257974
(PID.TID 0000.0001)         System time:  0.133980001
(PID.TID 0000.0001)     Wall clock time:  9.65001893
(PID.TID 0000.0001)          No. starts: 1
(PID.TID 0000.0001)           No. stops: 1
(PID.TID 0000.0001)   Seconds in section "INITIALISE_FIXED       [THE_MODEL_MAIN]":
(PID.TID 0000.0001)           User time:  1.54476502
(PID.TID 0000.0001)         System time:  0.075987997
(PID.TID 0000.0001)     Wall clock time:  1.64819813
(PID.TID 0000.0001)          No. starts: 1
(PID.TID 0000.0001)           No. stops: 1
(PID.TID 0000.0001)   Seconds in section "THE_MAIN_LOOP          [THE_MODEL_MAIN]":
(PID.TID 0000.0001)           User time:  7.79181612
(PID.TID 0000.0001)         System time:  0.0579920039
(PID.TID 0000.0001)     Wall clock time:  7.99509311
(PID.TID 0000.0001)          No. starts: 1
(PID.TID 0000.0001)           No. stops: 1
(PID.TID 0000.0001)   Seconds in section "INITIALISE_VARIA    [THE_MAIN_LOOP]":
(PID.TID 0000.0001)           User time:  0.201969981
(PID.TID 0000.0001)         System time:  0.0169980004
(PID.TID 0000.0001)     Wall clock time:  0.220092058
(PID.TID 0000.0001)          No. starts: 1
(PID.TID 0000.0001)           No. stops: 1
(PID.TID 0000.0001)   Seconds in section "MAIN LOOP           [THE_MAIN_LOOP]":
(PID.TID 0000.0001)           User time:  7.58984613
(PID.TID 0000.0001)         System time:  0.0409940034
(PID.TID 0000.0001)     Wall clock time:  7.77487803
(PID.TID 0000.0001)          No. starts: 1
(PID.TID 0000.0001)           No. stops: 1
(PID.TID 0000.0001)   Seconds in section "FORWARD_STEP        [THE_MAIN_LOOP]":
(PID.TID 0000.0001)           User time:  7.58684826
(PID.TID 0000.0001)         System time:  0.0409940034
(PID.TID 0000.0001)     Wall clock time:  7.77323771
(PID.TID 0000.0001)          No. starts: 40
(PID.TID 0000.0001)           No. stops: 40
(PID.TID 0000.0001)   Seconds in section "DO_STATEVARS_DIAGS  [FORWARD_STEP]":
(PID.TID 0000.0001)           User time:  0.047991991
(PID.TID 0000.0001)         System time:  0.00100000203
(PID.TID 0000.0001)     Wall clock time:  0.0518300533
(PID.TID 0000.0001)          No. starts: 80
(PID.TID 0000.0001)           No. stops: 80
(PID.TID 0000.0001)   Seconds in section "LOAD_FIELDS_DRIVER  [FORWARD_STEP]":
(PID.TID 0000.0001)           User time:  0.00299978256
(PID.TID 0000.0001)         System time:  0.
(PID.TID 0000.0001)     Wall clock time:  0.00482225418
(PID.TID 0000.0001)          No. starts: 40
(PID.TID 0000.0001)           No. stops: 40
(PID.TID 0000.0001)   Seconds in section "EXTERNAL_FLDS_LOAD [LOAD_FLDS_DRIVER]":
(PID.TID 0000.0001)           User time:  0.00100040436
(PID.TID 0000.0001)         System time:  0.
(PID.TID 0000.0001)     Wall clock time:  0.00164675713
(PID.TID 0000.0001)          No. starts: 40
(PID.TID 0000.0001)           No. stops: 40
(PID.TID 0000.0001)   Seconds in section "DO_ATMOSPHERIC_PHYS [FORWARD_STEP]":
(PID.TID 0000.0001)           User time:  0.0039999485
(PID.TID 0000.0001)         System time:  0.
(PID.TID 0000.0001)     Wall clock time:  0.0017054081
(PID.TID 0000.0001)          No. starts: 40
(PID.TID 0000.0001)           No. stops: 40
(PID.TID 0000.0001)   Seconds in section "DO_OCEANIC_PHYS     [FORWARD_STEP]":
(PID.TID 0000.0001)           User time:  0.0899847746
(PID.TID 0000.0001)         System time:  0.
(PID.TID 0000.0001)     Wall clock time:  0.0925395489
(PID.TID 0000.0001)          No. starts: 40
(PID.TID 0000.0001)           No. stops: 40
(PID.TID 0000.0001)   Seconds in section "THERMODYNAMICS      [FORWARD_STEP]":
(PID.TID 0000.0001)           User time:  1.33280146
(PID.TID 0000.0001)         System time:  0.00399900228
(PID.TID 0000.0001)     Wall clock time:  1.33880258
(PID.TID 0000.0001)          No. starts: 40
(PID.TID 0000.0001)           No. stops: 40
(PID.TID 0000.0001)   Seconds in section "DYNAMICS            [FORWARD_STEP]":
(PID.TID 0000.0001)           User time:  2.35563779
(PID.TID 0000.0001)         System time:  0.00699900091
(PID.TID 0000.0001)     Wall clock time:  2.36686325
(PID.TID 0000.0001)          No. starts: 40
(PID.TID 0000.0001)           No. stops: 40
(PID.TID 0000.0001)   Seconds in section "SOLVE_FOR_PRESSURE  [FORWARD_STEP]":
(PID.TID 0000.0001)           User time:  1.61875689
(PID.TID 0000.0001)         System time:  0.00399999321
(PID.TID 0000.0001)     Wall clock time:  1.63042665
(PID.TID 0000.0001)          No. starts: 40
(PID.TID 0000.0001)           No. stops: 40
(PID.TID 0000.0001)   Seconds in section "MOM_CORRECTION_STEP [FORWARD_STEP]":
(PID.TID 0000.0001)           User time:  0.174970984
(PID.TID 0000.0001)         System time:  0.
(PID.TID 0000.0001)     Wall clock time:  0.179246187
(PID.TID 0000.0001)          No. starts: 40
(PID.TID 0000.0001)           No. stops: 40
(PID.TID 0000.0001)   Seconds in section "TRC_CORRECTION_STEP [FORWARD_STEP]":
(PID.TID 0000.0001)           User time:  0.0519888401
(PID.TID 0000.0001)         System time:  0.
(PID.TID 0000.0001)     Wall clock time:  0.0503566265
(PID.TID 0000.0001)          No. starts: 40
(PID.TID 0000.0001)           No. stops: 40
(PID.TID 0000.0001)   Seconds in section "BLOCKING_EXCHANGES  [FORWARD_STEP]":
(PID.TID 0000.0001)           User time:  0.0759915113
(PID.TID 0000.0001)         System time:  0.
(PID.TID 0000.0001)     Wall clock time:  0.0768229961
(PID.TID 0000.0001)          No. starts: 40
(PID.TID 0000.0001)           No. stops: 40
(PID.TID 0000.0001)   Seconds in section "DO_STATEVARS_TAVE   [FORWARD_STEP]":
(PID.TID 0000.0001)           User time:  0.
(PID.TID 0000.0001)         System time:  0.
(PID.TID 0000.0001)     Wall clock time:  0.00157618523
(PID.TID 0000.0001)          No. starts: 40
(PID.TID 0000.0001)           No. stops: 40
(PID.TID 0000.0001)   Seconds in section "MONITOR             [FORWARD_STEP]":
(PID.TID 0000.0001)           User time:  1.33879411
(PID.TID 0000.0001)         System time:  0.0029990077
(PID.TID 0000.0001)     Wall clock time:  1.34349489
(PID.TID 0000.0001)          No. starts: 40
(PID.TID 0000.0001)           No. stops: 40
(PID.TID 0000.0001)   Seconds in section "DO_THE_MODEL_IO     [FORWARD_STEP]":
(PID.TID 0000.0001)           User time:  0.419938564
(PID.TID 0000.0001)         System time:  0.00899899751
(PID.TID 0000.0001)     Wall clock time:  0.540423393
(PID.TID 0000.0001)          No. starts: 40
(PID.TID 0000.0001)           No. stops: 40
(PID.TID 0000.0001)   Seconds in section "DO_WRITE_PICKUP     [FORWARD_STEP]":
(PID.TID 0000.0001)           User time:  0.0439929962
(PID.TID 0000.0001)         System time:  0.00899900496
(PID.TID 0000.0001)     Wall clock time:  0.0679826736
(PID.TID 0000.0001)          No. starts: 40
(PID.TID 0000.0001)           No. stops: 40
(PID.TID 0000.0001) // ======================================================
(PID.TID 0000.0001) // Tile <-> Tile communication statistics
(PID.TID 0000.0001) // ======================================================
(PID.TID 0000.0001) // o Tile number: 000001
(PID.TID 0000.0001) //         No. X exchanges =              0
(PID.TID 0000.0001) //            Max. X spins =              0
(PID.TID 0000.0001) //            Min. X spins =     1000000000
(PID.TID 0000.0001) //          Total. X spins =              0
(PID.TID 0000.0001) //            Avg. X spins =       0.00E+00
(PID.TID 0000.0001) //         No. Y exchanges =              0
(PID.TID 0000.0001) //            Max. Y spins =              0
(PID.TID 0000.0001) //            Min. Y spins =     1000000000
(PID.TID 0000.0001) //          Total. Y spins =              0
(PID.TID 0000.0001) //            Avg. Y spins =       0.00E+00
(PID.TID 0000.0001) // o Tile number: 000002
(PID.TID 0000.0001) //         No. X exchanges =              0
(PID.TID 0000.0001) //            Max. X spins =              0
(PID.TID 0000.0001) //            Min. X spins =     1000000000
(PID.TID 0000.0001) //          Total. X spins =              0
(PID.TID 0000.0001) //            Avg. X spins =       0.00E+00
(PID.TID 0000.0001) //         No. Y exchanges =              0
(PID.TID 0000.0001) //            Max. Y spins =              0
(PID.TID 0000.0001) //            Min. Y spins =     1000000000
(PID.TID 0000.0001) //          Total. Y spins =              0
(PID.TID 0000.0001) //            Avg. Y spins =       0.00E+00
(PID.TID 0000.0001) // o Tile number: 000003
(PID.TID 0000.0001) //         No. X exchanges =              0
(PID.TID 0000.0001) //            Max. X spins =              0
(PID.TID 0000.0001) //            Min. X spins =     1000000000
(PID.TID 0000.0001) //          Total. X spins =              0
(PID.TID 0000.0001) //            Avg. X spins =       0.00E+00
(PID.TID 0000.0001) //         No. Y exchanges =              0
(PID.TID 0000.0001) //            Max. Y spins =              0
(PID.TID 0000.0001) //            Min. Y spins =     1000000000
(PID.TID 0000.0001) //          Total. Y spins =              0
(PID.TID 0000.0001) //            Avg. Y spins =       0.00E+00
(PID.TID 0000.0001) // o Tile number: 000004
(PID.TID 0000.0001) //         No. X exchanges =              0
(PID.TID 0000.0001) //            Max. X spins =              0
(PID.TID 0000.0001) //            Min. X spins =     1000000000
(PID.TID 0000.0001) //          Total. X spins =              0
(PID.TID 0000.0001) //            Avg. X spins =       0.00E+00
(PID.TID 0000.0001) //         No. Y exchanges =              0
(PID.TID 0000.0001) //            Max. Y spins =              0
(PID.TID 0000.0001) //            Min. Y spins =     1000000000
(PID.TID 0000.0001) //          Total. Y spins =              0
(PID.TID 0000.0001) //            Avg. Y spins =       0.00E+00
(PID.TID 0000.0001) // o Thread number: 000001
(PID.TID 0000.0001) //            No. barriers =          14216
(PID.TID 0000.0001) //      Max. barrier spins =              1
(PID.TID 0000.0001) //      Min. barrier spins =              1
(PID.TID 0000.0001) //     Total barrier spins =          14216
(PID.TID 0000.0001) //      Avg. barrier spins =       1.00E+00
