(PID.TID 0000.0001) 
(PID.TID 0000.0001) // ======================================================
(PID.TID 0000.0001) //                      MITgcm UV
(PID.TID 0000.0001) //                      =========
(PID.TID 0000.0001) // ======================================================
(PID.TID 0000.0001) // execution environment starting up...
(PID.TID 0000.0001) 
(PID.TID 0000.0001) // MITgcmUV version:  checkpoint64w
(PID.TID 0000.0001) // Build user:        jmc
(PID.TID 0000.0001) // Build host:        baudelaire
(PID.TID 0000.0001) // Build date:        Sun May 11 21:51:26 EDT 2014
(PID.TID 0000.0001) 
(PID.TID 0000.0001) // =======================================================
(PID.TID 0000.0001) // Execution Environment parameter file "eedata"
(PID.TID 0000.0001) // =======================================================
(PID.TID 0000.0001) ># Example "eedata" file
(PID.TID 0000.0001) ># Lines beginning "#" are comments
(PID.TID 0000.0001) ># nTx - No. threads per process in X
(PID.TID 0000.0001) ># nTy - No. threads per process in Y
(PID.TID 0000.0001) > &EEPARMS
(PID.TID 0000.0001) > useCubedSphereExchange=.TRUE.,
(PID.TID 0000.0001) ># Activate one line below to support 2, 3 or 6 way multi-threading
(PID.TID 0000.0001) >#nTx=2,
(PID.TID 0000.0001) >#nTx=3,
(PID.TID 0000.0001) >#nTx=6,
(PID.TID 0000.0001) > /
(PID.TID 0000.0001) ># Note: Some systems use & as the
(PID.TID 0000.0001) ># namelist terminator. Other systems
(PID.TID 0000.0001) ># use a / character (as shown here).
(PID.TID 0000.0001) 
(PID.TID 0000.0001) // =======================================================
(PID.TID 0000.0001) // Computational Grid Specification ( see files "SIZE.h" )
(PID.TID 0000.0001) //                                  ( and "eedata"       )
(PID.TID 0000.0001) // =======================================================
(PID.TID 0000.0001)      nPx =    1 ; /* No. processes in X */
(PID.TID 0000.0001)      nPy =    1 ; /* No. processes in Y */
(PID.TID 0000.0001)      nSx =    6 ; /* No. tiles in X per process */
(PID.TID 0000.0001)      nSy =    1 ; /* No. tiles in Y per process */
(PID.TID 0000.0001)      sNx =   32 ; /* Tile size in X */
(PID.TID 0000.0001)      sNy =   32 ; /* Tile size in Y */
(PID.TID 0000.0001)      OLx =    2 ; /* Tile overlap distance in X */
(PID.TID 0000.0001)      OLy =    2 ; /* Tile overlap distance in Y */
(PID.TID 0000.0001)      nTx =    1 ; /* No. threads in X per process */
(PID.TID 0000.0001)      nTy =    1 ; /* No. threads in Y per process */
(PID.TID 0000.0001)       Nr =   20 ; /* No. levels in the vertical   */
(PID.TID 0000.0001)       Nx =  192 ; /* Total domain size in X ( = nPx*nSx*sNx ) */
(PID.TID 0000.0001)       Ny =   32 ; /* Total domain size in Y ( = nPy*nSy*sNy ) */
(PID.TID 0000.0001)   nTiles =    6 ; /* Total no. tiles per process ( = nSx*nSy ) */
(PID.TID 0000.0001)   nProcs =    1 ; /* Total no. processes ( = nPx*nPy ) */
(PID.TID 0000.0001) nThreads =    1 ; /* Total no. threads per process ( = nTx*nTy ) */
(PID.TID 0000.0001) usingMPI =    F ; /* Flag used to control whether MPI is in use */
(PID.TID 0000.0001)                   /*  note: To execute a program with MPI calls */
(PID.TID 0000.0001)                   /*  it must be launched appropriately e.g     */
(PID.TID 0000.0001)                   /*  "mpirun -np 64 ......"                    */
(PID.TID 0000.0001) useCoupler=    F ;/* Flag used to control communications with   */
(PID.TID 0000.0001)                   /*  other model components, through a coupler */
(PID.TID 0000.0001) debugMode =    F ; /* print debug msg. (sequence of S/R calls)  */
(PID.TID 0000.0001) printMapIncludesZeros=    F ; /* print zeros in Std.Output maps */
(PID.TID 0000.0001) maxLengthPrt1D=   65 /* maxLength of 1D array printed to StdOut */
(PID.TID 0000.0001) 
(PID.TID 0000.0001) // ======================================================
(PID.TID 0000.0001) // Mapping of tiles to threads
(PID.TID 0000.0001) // ======================================================
(PID.TID 0000.0001) // -o- Thread   1, tiles (   1:   6,   1:   1)
(PID.TID 0000.0001) 
(PID.TID 0000.0001) W2_READPARMS: file data.exch2 not found
(PID.TID 0000.0001) => use W2_EXCH2 default: regular 6-facets Cube
(PID.TID 0000.0001) W2_useE2ioLayOut=    T ;/* T: use Exch2 glob IO map; F: use model default */
(PID.TID 0000.0001) W2_mapIO        =  -1 ; /* select option for Exch2 global-IO map */
(PID.TID 0000.0001) W2_printMsg     =  -1 ; /* select option for printing information */
(PID.TID 0000.0001) ===== Start setting W2 TOPOLOGY:
(PID.TID 0000.0001)  write to log-file: w2_tile_topology.0000.log
(PID.TID 0000.0001) =====       setting W2 TOPOLOGY: Done
(PID.TID 0000.0001) 
(PID.TID 0000.0001)  INI_PARMS: opening model parameter file "data"
(PID.TID 0000.0001)  OPEN_COPY_DATA_FILE: opening file data
(PID.TID 0000.0001) // =======================================================
(PID.TID 0000.0001) // Parameter file "data"
(PID.TID 0000.0001) // =======================================================
(PID.TID 0000.0001) ># ====================
(PID.TID 0000.0001) ># | Model parameters |
(PID.TID 0000.0001) ># ====================
(PID.TID 0000.0001) >#
(PID.TID 0000.0001) ># Continuous equation parameters
(PID.TID 0000.0001) > &PARM01
(PID.TID 0000.0001) > tRef=295.2, 295.5, 295.9, 296.3, 296.7, 297.1, 297.6, 298.1, 298.7, 299.3,
(PID.TID 0000.0001) >      300.0, 300.7, 301.9, 304.1, 308.0, 315.1, 329.5, 362.3, 419.2, 573.8,
(PID.TID 0000.0001) > sRef=20*0.0,
(PID.TID 0000.0001) > no_slip_sides=.FALSE.,
(PID.TID 0000.0001) > no_slip_bottom=.FALSE.,
(PID.TID 0000.0001) > buoyancyRelation='ATMOSPHERIC',
(PID.TID 0000.0001) > eosType='IDEALG',
(PID.TID 0000.0001) > rotationPeriod=86400.,
(PID.TID 0000.0001) > implicitFreeSurface=.TRUE.,
(PID.TID 0000.0001) > exactConserv=.TRUE.,
(PID.TID 0000.0001) > nonlinFreeSurf=4,
(PID.TID 0000.0001) > select_rStar=2,
(PID.TID 0000.0001) > hFacInf=0.2,
(PID.TID 0000.0001) > hFacSup=2.0,
(PID.TID 0000.0001) > uniformLin_PhiSurf=.FALSE.,
(PID.TID 0000.0001) >#hFacMin=0.2,
(PID.TID 0000.0001) > saltStepping=.FALSE.,
(PID.TID 0000.0001) > momViscosity=.FALSE.,
(PID.TID 0000.0001) > vectorInvariantMomentum=.TRUE.,
(PID.TID 0000.0001) > staggerTimeStep=.TRUE.,
(PID.TID 0000.0001) > readBinaryPrec=64,
(PID.TID 0000.0001) > writeBinaryPrec=64,
(PID.TID 0000.0001) > /
(PID.TID 0000.0001) >
(PID.TID 0000.0001) ># Elliptic solver parameters
(PID.TID 0000.0001) > &PARM02
(PID.TID 0000.0001) > cg2dMaxIters=200,
(PID.TID 0000.0001) >#cg2dTargetResidual=1.E-12,
(PID.TID 0000.0001) > cg2dTargetResWunit=1.E-17,
(PID.TID 0000.0001) > /
(PID.TID 0000.0001) >
(PID.TID 0000.0001) ># Time stepping parameters
(PID.TID 0000.0001) > &PARM03
(PID.TID 0000.0001) > deltaT=450.,
(PID.TID 0000.0001) >#nIter0=276480,
(PID.TID 0000.0001) > startTime=124416000.,
(PID.TID 0000.0001) >#- run for 1 year (192.iterations x 450.s = 1.day, 360*192=69120):
(PID.TID 0000.0001) >#nTimeSteps=69120,
(PID.TID 0000.0001) >#forcing_In_AB=.FALSE.,
(PID.TID 0000.0001) > tracForcingOutAB=1,
(PID.TID 0000.0001) > abEps=0.1,
(PID.TID 0000.0001) > pChkptFreq=31104000.,
(PID.TID 0000.0001) > chkptFreq=2592000.,
(PID.TID 0000.0001) > dumpFreq=2592000.,
(PID.TID 0000.0001) >#monitorFreq=43200.,
(PID.TID 0000.0001) > taveFreq=0.,
(PID.TID 0000.0001) >#- to run a short test (2.h):
(PID.TID 0000.0001) > nTimeSteps=16,
(PID.TID 0000.0001) > monitorFreq=1.,
(PID.TID 0000.0001) > /
(PID.TID 0000.0001) >
(PID.TID 0000.0001) ># Gridding parameters
(PID.TID 0000.0001) > &PARM04
(PID.TID 0000.0001) > usingCurvilinearGrid=.TRUE.,
(PID.TID 0000.0001) > horizGridFile='grid_cs32',
(PID.TID 0000.0001) > radius_fromHorizGrid=6370.E3,
(PID.TID 0000.0001) > delR=20*50.E2,
(PID.TID 0000.0001) > Ro_SeaLevel=1.E5,
(PID.TID 0000.0001) > /
(PID.TID 0000.0001) >
(PID.TID 0000.0001) ># Input datasets
(PID.TID 0000.0001) > &PARM05
(PID.TID 0000.0001) >#topoFile='topo.cs.bin',
(PID.TID 0000.0001) > /
(PID.TID 0000.0001) 
(PID.TID 0000.0001)  INI_PARMS ; starts to read PARM01
(PID.TID 0000.0001)  INI_PARMS ; read PARM01 : OK
(PID.TID 0000.0001)  INI_PARMS ; starts to read PARM02
(PID.TID 0000.0001)  INI_PARMS ; read PARM02 : OK
(PID.TID 0000.0001)  INI_PARMS ; starts to read PARM03
(PID.TID 0000.0001)  INI_PARMS ; read PARM03 : OK
(PID.TID 0000.0001)  INI_PARMS ; starts to read PARM04
(PID.TID 0000.0001)  INI_PARMS ; read PARM04 : OK
(PID.TID 0000.0001)  INI_PARMS ; starts to read PARM05
(PID.TID 0000.0001)  INI_PARMS ; read PARM05 : OK
(PID.TID 0000.0001)  INI_PARMS: finished reading file "data"
(PID.TID 0000.0001)  PACKAGES_BOOT: opening data.pkg
(PID.TID 0000.0001)  OPEN_COPY_DATA_FILE: opening file data.pkg
(PID.TID 0000.0001) // =======================================================
(PID.TID 0000.0001) // Parameter file "data.pkg"
(PID.TID 0000.0001) // =======================================================
(PID.TID 0000.0001) ># Packages
(PID.TID 0000.0001) > &PACKAGES
(PID.TID 0000.0001) > useSHAP_FILT=.TRUE.,
(PID.TID 0000.0001) > useDiagnostics=.TRUE.,
(PID.TID 0000.0001) >#useMNC=.TRUE.,
(PID.TID 0000.0001) > /
(PID.TID 0000.0001) 
(PID.TID 0000.0001)  PACKAGES_BOOT: finished reading data.pkg
(PID.TID 0000.0001)  PACKAGES_BOOT: On/Off package Summary
 --------  pkgs with a standard "usePKG" On/Off switch in "data.pkg":  --------
 pkg/shap_filt            compiled   and   used ( useSHAP_FILT             = T )
 pkg/diagnostics          compiled   and   used ( useDiagnostics           = T )
 pkg/mnc                  compiled but not used ( useMNC                   = F )
 -------- pkgs without standard "usePKG" On/Off switch in "data.pkg":  --------
 pkg/generic_advdiff      compiled   and   used ( useGAD                   = T )
 pkg/mom_common           compiled   and   used ( momStepping              = T )
 pkg/mom_vecinv           compiled   and   used ( +vectorInvariantMomentum = T )
 pkg/mom_fluxform         compiled but not used ( & not vectorInvariantMom = F )
 pkg/monitor              compiled   and   used ( monitorFreq > 0.         = T )
 pkg/timeave              compiled but not used ( taveFreq > 0.            = F )
 pkg/debug                compiled but not used ( debugMode                = F )
 pkg/exch2                compiled   and   used
 pkg/rw                   compiled   and   used
 pkg/mdsio                compiled   and   used
(PID.TID 0000.0001)  PACKAGES_BOOT: End of package Summary
(PID.TID 0000.0001) 
(PID.TID 0000.0001)  SHAP_FILT_READPARMS: opening data.shap
(PID.TID 0000.0001)  OPEN_COPY_DATA_FILE: opening file data.shap
(PID.TID 0000.0001) // =======================================================
(PID.TID 0000.0001) // Parameter file "data.shap"
(PID.TID 0000.0001) // =======================================================
(PID.TID 0000.0001) ># Shapiro Filter parameters
(PID.TID 0000.0001) > &SHAP_PARM01
(PID.TID 0000.0001) > shap_filt_uvStar=.FALSE.,
(PID.TID 0000.0001) > shap_filt_TrStagg=.TRUE.,
(PID.TID 0000.0001) > Shap_funct=2,
(PID.TID 0000.0001) > nShapT=0,
(PID.TID 0000.0001) > nShapUV=4,
(PID.TID 0000.0001) >#nShapTrPhys=0,
(PID.TID 0000.0001) > nShapUVPhys=4,
(PID.TID 0000.0001) >#Shap_TrLength=140000.,
(PID.TID 0000.0001) >#Shap_uvLength=110000.,
(PID.TID 0000.0001) >#Shap_Trtau=5400.,
(PID.TID 0000.0001) >#Shap_uvtau=1800.,
(PID.TID 0000.0001) >#Shap_diagFreq=2592000.,
(PID.TID 0000.0001) > /
(PID.TID 0000.0001) 
(PID.TID 0000.0001)  SHAP_FILT_READPARMS: finished reading data.shap
(PID.TID 0000.0001) Shap_funct =   /* select Shapiro filter function */
(PID.TID 0000.0001)                       2
(PID.TID 0000.0001)     ;
(PID.TID 0000.0001) nShapT =   /* power of Shapiro filter for Temperat */
(PID.TID 0000.0001)                       0
(PID.TID 0000.0001)     ;
(PID.TID 0000.0001) nShapS =   /* power of Shapiro filter for Salinity */
(PID.TID 0000.0001)                       0
(PID.TID 0000.0001)     ;
(PID.TID 0000.0001) nShapUV =   /* power of Shapiro filter for momentum */
(PID.TID 0000.0001)                       4
(PID.TID 0000.0001)     ;
(PID.TID 0000.0001) shap_filt_uvStar = /* apply filter before Press. Solver */
(PID.TID 0000.0001)                   F
(PID.TID 0000.0001)     ;
(PID.TID 0000.0001) shap_filt_TrStagg = /* filter T,S before calc PhiHyd (staggerTimeStep) */
(PID.TID 0000.0001)                   T
(PID.TID 0000.0001)     ;
(PID.TID 0000.0001) Shap_alwaysExchUV = /* always exch(U,V)    nShapUV times*/
(PID.TID 0000.0001)                   F
(PID.TID 0000.0001)     ;
(PID.TID 0000.0001) Shap_alwaysExchTr = /* always exch(Tracer) nShapTr times*/
(PID.TID 0000.0001)                   F
(PID.TID 0000.0001)     ;
(PID.TID 0000.0001) nShapTrPhys =   /* power of physical-space filter (Tracer) */
(PID.TID 0000.0001)                       0
(PID.TID 0000.0001)     ;
(PID.TID 0000.0001) nShapUVPhys =   /* power of physical-space filter (Momentum) */
(PID.TID 0000.0001)                       4
(PID.TID 0000.0001)     ;
(PID.TID 0000.0001) Shap_Trtau =   /* time scale of Shapiro filter (Tracer) */
(PID.TID 0000.0001)                 4.500000000000000E+02
(PID.TID 0000.0001)     ;
(PID.TID 0000.0001) Shap_TrLength =   /* Length scale of Shapiro filter (Tracer) */
(PID.TID 0000.0001)                 0.000000000000000E+00
(PID.TID 0000.0001)     ;
(PID.TID 0000.0001) Shap_uvtau =   /* time scale of Shapiro filter (Momentum) */
(PID.TID 0000.0001)                 4.500000000000000E+02
(PID.TID 0000.0001)     ;
(PID.TID 0000.0001) Shap_uvLength =   /* Length scale of Shapiro filter (Momentum) */
(PID.TID 0000.0001)                 0.000000000000000E+00
(PID.TID 0000.0001)     ;
(PID.TID 0000.0001) Shap_noSlip =  /* No-slip parameter (0=Free-slip ; 1=No-slip)*/
(PID.TID 0000.0001)                 0.000000000000000E+00
(PID.TID 0000.0001)     ;
(PID.TID 0000.0001) Shap_diagFreq =   /* Frequency^-1 for diagnostic output (s)*/
(PID.TID 0000.0001)                 0.000000000000000E+00
(PID.TID 0000.0001)     ;
(PID.TID 0000.0001)  DIAGNOSTICS_READPARMS: opening data.diagnostics
(PID.TID 0000.0001)  OPEN_COPY_DATA_FILE: opening file data.diagnostics
(PID.TID 0000.0001) // =======================================================
(PID.TID 0000.0001) // Parameter file "data.diagnostics"
(PID.TID 0000.0001) // =======================================================
(PID.TID 0000.0001) ># Diagnostic Package Choices
(PID.TID 0000.0001) >#--------------------
(PID.TID 0000.0001) >#  dumpAtLast (logical): always write output at the end of simulation (default=F)
(PID.TID 0000.0001) >#  diag_mnc   (logical): write to NetCDF files (default=useMNC)
(PID.TID 0000.0001) >#--for each output-stream:
(PID.TID 0000.0001) >#  fileName(n) : prefix of the output file name (max 80c long) for outp.stream n
(PID.TID 0000.0001) >#  frequency(n):< 0 : write snap-shot output every |frequency| seconds
(PID.TID 0000.0001) >#               > 0 : write time-average output every frequency seconds
(PID.TID 0000.0001) >#  timePhase(n)     : write at time = timePhase + multiple of |frequency|
(PID.TID 0000.0001) >#    averagingFreq  : frequency (in s) for periodic averaging interval
(PID.TID 0000.0001) >#    averagingPhase : phase     (in s) for periodic averaging interval
(PID.TID 0000.0001) >#    repeatCycle    : number of averaging intervals in 1 cycle
(PID.TID 0000.0001) >#  levels(:,n) : list of levels to write to file (Notes: declared as REAL)
(PID.TID 0000.0001) >#                when this entry is missing, select all common levels of this list
(PID.TID 0000.0001) >#  fields(:,n) : list of selected diagnostics fields (8.c) in outp.stream n
(PID.TID 0000.0001) >#                (see "available_diagnostics.log" file for the full list of diags)
(PID.TID 0000.0001) >#  missing_value(n) : missing value for real-type fields in output file "n"
(PID.TID 0000.0001) >#  fileFlags(n)     : specific code (8c string) for output file "n"
(PID.TID 0000.0001) >#--------------------
(PID.TID 0000.0001) > &DIAGNOSTICS_LIST
(PID.TID 0000.0001) ># diag_mnc     = .FALSE.,
(PID.TID 0000.0001) >#--
(PID.TID 0000.0001) >  fields(1:3,1)  = 'ETAN    ','ETANSQ  ','DETADT2 ',
(PID.TID 0000.0001) >   levels(1,1) = 1.,
(PID.TID 0000.0001) >   fileName(1) = 'surfDiag',
(PID.TID 0000.0001) ># frequency(1) = 2592000.,
(PID.TID 0000.0001) >  frequency(1) = 86400.,
(PID.TID 0000.0001) >  fields(1:5,2)  = 'UVEL    ','VVEL    ','WVEL    ','THETA   ','SHAP_dU ',
(PID.TID 0000.0001) >   fileName(2) = 'dynDiag',
(PID.TID 0000.0001) ># frequency(2) = 2592000.,
(PID.TID 0000.0001) >  frequency(2) = 86400.,
(PID.TID 0000.0001) >  fields(1:8,3)  = 'UVELSQ  ','VVELSQ  ','WVELSQ  ','THETASQ ',
(PID.TID 0000.0001) >                   'UTHMASS ','VTHMASS ','WVELTH  ','UV_VEL_C',
(PID.TID 0000.0001) >   fileName(3) = 'secmomDiag',
(PID.TID 0000.0001) ># frequency(3) = 2592000.,
(PID.TID 0000.0001) >  frequency(3) = 86400.,
(PID.TID 0000.0001) > /
(PID.TID 0000.0001) >
(PID.TID 0000.0001) >#--------------------
(PID.TID 0000.0001) ># Parameter for Diagnostics of per level statistics:
(PID.TID 0000.0001) >#--------------------
(PID.TID 0000.0001) >#  diagSt_mnc (logical): write stat-diags to NetCDF files (default=diag_mnc)
(PID.TID 0000.0001) >#  diagSt_regMaskFile : file containing the region-mask to read-in
(PID.TID 0000.0001) >#  nSetRegMskFile   : number of region-mask sets within the region-mask file
(PID.TID 0000.0001) >#  set_regMask(i)   : region-mask set-index that identifies the region "i"
(PID.TID 0000.0001) >#  val_regMask(i)   : region "i" identifier value in the region mask
(PID.TID 0000.0001) >#--for each output-stream:
(PID.TID 0000.0001) >#  stat_fName(n) : prefix of the output file name (max 80c long) for outp.stream n
(PID.TID 0000.0001) >#  stat_freq(n):< 0 : write snap-shot output every |stat_freq| seconds
(PID.TID 0000.0001) >#               > 0 : write time-average output every stat_freq seconds
(PID.TID 0000.0001) >#  stat_phase(n)    : write at time = stat_phase + multiple of |stat_freq|
(PID.TID 0000.0001) >#  stat_region(:,n) : list of "regions" (default: 1 region only=global)
(PID.TID 0000.0001) >#  stat_fields(:,n) : list of selected diagnostics fields (8.c) in outp.stream n
(PID.TID 0000.0001) >#                (see "available_diagnostics.log" file for the full list of diags)
(PID.TID 0000.0001) >#--------------------
(PID.TID 0000.0001) > &DIAG_STATIS_PARMS
(PID.TID 0000.0001) >#- an example just to check the agreement with MONITOR output:
(PID.TID 0000.0001) > stat_fields(1:5,1)  = 'ETAN    ','UVEL    ','VVEL    ','WVEL    ', 'THETA   ',
(PID.TID 0000.0001) >  stat_fName(1) = 'dynStDiag',
(PID.TID 0000.0001) >#  stat_freq(1)= -864000.,
(PID.TID 0000.0001) >   stat_freq(1)= -3600.,
(PID.TID 0000.0001) ># stat_phase(1) = 0.,
(PID.TID 0000.0001) > /
(PID.TID 0000.0001) >
(PID.TID 0000.0001) 
(PID.TID 0000.0001) S/R DIAGNOSTICS_READPARMS, read namelist "diagnostics_list": start
(PID.TID 0000.0001) S/R DIAGNOSTICS_READPARMS, read namelist "diagnostics_list": OK
(PID.TID 0000.0001) S/R DIAGNOSTICS_READPARMS, read namelist "DIAG_STATIS_PARMS": start
(PID.TID 0000.0001) S/R DIAGNOSTICS_READPARMS, read namelist "DIAG_STATIS_PARMS": OK
(PID.TID 0000.0001)  DIAGNOSTICS_READPARMS: global parameter summary:
(PID.TID 0000.0001)  dumpAtLast = /* always write time-ave diags at the end */
(PID.TID 0000.0001)                   F
(PID.TID 0000.0001)     ;
(PID.TID 0000.0001)  diag_mnc =   /* write NetCDF output files */
(PID.TID 0000.0001)                   F
(PID.TID 0000.0001)     ;
(PID.TID 0000.0001)  useMissingValue = /* put MissingValue where mask = 0 */
(PID.TID 0000.0001)                   F
(PID.TID 0000.0001)     ;
(PID.TID 0000.0001)  diagCG_maxIters = /* max number of iters in diag_cg2d */
(PID.TID 0000.0001)                     200
(PID.TID 0000.0001)     ;
(PID.TID 0000.0001)  diagCG_resTarget = /* residual target for diag_cg2d */
(PID.TID 0000.0001)                 1.000000000000000E-07
(PID.TID 0000.0001)     ;
(PID.TID 0000.0001) -----------------------------------------------------
(PID.TID 0000.0001)  DIAGNOSTICS_READPARMS: active diagnostics summary:
(PID.TID 0000.0001) -----------------------------------------------------
(PID.TID 0000.0001) Creating Output Stream: surfDiag
(PID.TID 0000.0001) Output Frequency:      86400.000000 ; Phase:           0.000000
(PID.TID 0000.0001)  Averaging Freq.:      86400.000000 , Phase:           0.000000 , Cycle:   1
(PID.TID 0000.0001)  missing value: -9.990000000000E+02
(PID.TID 0000.0001)  Levels:       1.
(PID.TID 0000.0001)  Fields:    ETAN     ETANSQ   DETADT2
(PID.TID 0000.0001) Creating Output Stream: dynDiag
(PID.TID 0000.0001) Output Frequency:      86400.000000 ; Phase:           0.000000
(PID.TID 0000.0001)  Averaging Freq.:      86400.000000 , Phase:           0.000000 , Cycle:   1
(PID.TID 0000.0001)  missing value: -9.990000000000E+02
(PID.TID 0000.0001)  Levels:    will be set later
(PID.TID 0000.0001)  Fields:    UVEL     VVEL     WVEL     THETA    SHAP_dU
(PID.TID 0000.0001) Creating Output Stream: secmomDiag
(PID.TID 0000.0001) Output Frequency:      86400.000000 ; Phase:           0.000000
(PID.TID 0000.0001)  Averaging Freq.:      86400.000000 , Phase:           0.000000 , Cycle:   1
(PID.TID 0000.0001)  missing value: -9.990000000000E+02
(PID.TID 0000.0001)  Levels:    will be set later
(PID.TID 0000.0001)  Fields:    UVELSQ   VVELSQ   WVELSQ   THETASQ  UTHMASS  VTHMASS  WVELTH   UV_VEL_C
(PID.TID 0000.0001) -----------------------------------------------------
(PID.TID 0000.0001)  DIAGNOSTICS_READPARMS: statistics diags. summary:
(PID.TID 0000.0001) Creating Stats. Output Stream: dynStDiag
(PID.TID 0000.0001) Output Frequency:      -3600.000000 ; Phase:        1800.000000
(PID.TID 0000.0001)  Regions:   0
(PID.TID 0000.0001)  Fields:    ETAN     UVEL     VVEL     WVEL     THETA
(PID.TID 0000.0001) -----------------------------------------------------
(PID.TID 0000.0001) 
(PID.TID 0000.0001) SET_PARMS: done
(PID.TID 0000.0001) Enter INI_VERTICAL_GRID: setInterFDr=    T ; setCenterDr=    F
(PID.TID 0000.0001) tile:   1 ; Read from file grid_cs32.face001.bin
(PID.TID 0000.0001)   => xC yC dxF dyF rA xG yG dxV dyU rAz dxC dyC rAw rAs dxG dyG AngleCS AngleSN
(PID.TID 0000.0001) tile:   2 ; Read from file grid_cs32.face002.bin
(PID.TID 0000.0001)   => xC yC dxF dyF rA xG yG dxV dyU rAz dxC dyC rAw rAs dxG dyG AngleCS AngleSN
(PID.TID 0000.0001) tile:   3 ; Read from file grid_cs32.face003.bin
(PID.TID 0000.0001)   => xC yC dxF dyF rA xG yG dxV dyU rAz dxC dyC rAw rAs dxG dyG AngleCS AngleSN
(PID.TID 0000.0001) tile:   4 ; Read from file grid_cs32.face004.bin
(PID.TID 0000.0001)   => xC yC dxF dyF rA xG yG dxV dyU rAz dxC dyC rAw rAs dxG dyG AngleCS AngleSN
(PID.TID 0000.0001) tile:   5 ; Read from file grid_cs32.face005.bin
(PID.TID 0000.0001)   => xC yC dxF dyF rA xG yG dxV dyU rAz dxC dyC rAw rAs dxG dyG AngleCS AngleSN
(PID.TID 0000.0001) tile:   6 ; Read from file grid_cs32.face006.bin
(PID.TID 0000.0001)   => xC yC dxF dyF rA xG yG dxV dyU rAz dxC dyC rAw rAs dxG dyG AngleCS AngleSN
(PID.TID 0000.0001) %MON XC_max                       =   1.7854351589505E+02
(PID.TID 0000.0001) %MON XC_min                       =  -1.7854351589505E+02
(PID.TID 0000.0001) %MON XC_mean                      =  -4.6999441375798E-15
(PID.TID 0000.0001) %MON XC_sd                        =   1.0355545336287E+02
(PID.TID 0000.0001) %MON XG_max                       =   1.8000000000000E+02
(PID.TID 0000.0001) %MON XG_min                       =  -1.7708797161002E+02
(PID.TID 0000.0001) %MON XG_mean                      =   1.8603515625000E+00
(PID.TID 0000.0001) %MON XG_sd                        =   1.0357130300504E+02
(PID.TID 0000.0001) %MON DXC_max                      =   3.2375185836900E+05
(PID.TID 0000.0001) %MON DXC_min                      =   1.1142031410131E+05
(PID.TID 0000.0001) %MON DXC_mean                     =   2.8605689051214E+05
(PID.TID 0000.0001) %MON DXC_sd                       =   3.4042087138252E+04
(PID.TID 0000.0001) %MON DXF_max                      =   3.2369947500827E+05
(PID.TID 0000.0001) %MON DXF_min                      =   1.2020820513318E+05
(PID.TID 0000.0001) %MON DXF_mean                     =   2.8605437324820E+05
(PID.TID 0000.0001) %MON DXF_sd                       =   3.4050524252539E+04
(PID.TID 0000.0001) %MON DXG_max                      =   3.2375195872773E+05
(PID.TID 0000.0001) %MON DXG_min                      =   1.0098378008791E+05
(PID.TID 0000.0001) %MON DXG_mean                     =   2.8603818508931E+05
(PID.TID 0000.0001) %MON DXG_sd                       =   3.4140406908005E+04
(PID.TID 0000.0001) %MON DXV_max                      =   3.2380418162750E+05
(PID.TID 0000.0001) %MON DXV_min                      =   8.0152299824136E+04
(PID.TID 0000.0001) %MON DXV_mean                     =   2.8603970633619E+05
(PID.TID 0000.0001) %MON DXV_sd                       =   3.4145142117723E+04
(PID.TID 0000.0001) %MON YC_max                       =   8.7940663871962E+01
(PID.TID 0000.0001) %MON YC_min                       =  -8.7940663871962E+01
(PID.TID 0000.0001) %MON YC_mean                      =   0.0000000000000E+00
(PID.TID 0000.0001) %MON YC_sd                        =   3.8676242969072E+01
(PID.TID 0000.0001) %MON YG_max                       =   9.0000000000000E+01
(PID.TID 0000.0001) %MON YG_min                       =  -9.0000000000000E+01
(PID.TID 0000.0001) %MON YG_mean                      =  -1.1842378929335E-15
(PID.TID 0000.0001) %MON YG_sd                        =   3.8676895860710E+01
(PID.TID 0000.0001) %MON DYC_max                      =   3.2375185836900E+05
(PID.TID 0000.0001) %MON DYC_min                      =   1.1142031410131E+05
(PID.TID 0000.0001) %MON DYC_mean                     =   2.8605689051214E+05
(PID.TID 0000.0001) %MON DYC_sd                       =   3.4042087138252E+04
(PID.TID 0000.0001) %MON DYF_max                      =   3.2369947500827E+05
(PID.TID 0000.0001) %MON DYF_min                      =   1.2020820513318E+05
(PID.TID 0000.0001) %MON DYF_mean                     =   2.8605437324820E+05
(PID.TID 0000.0001) %MON DYF_sd                       =   3.4050524252539E+04
(PID.TID 0000.0001) %MON DYG_max                      =   3.2375195872773E+05
(PID.TID 0000.0001) %MON DYG_min                      =   1.0098378008791E+05
(PID.TID 0000.0001) %MON DYG_mean                     =   2.8603818508931E+05
(PID.TID 0000.0001) %MON DYG_sd                       =   3.4140406908005E+04
(PID.TID 0000.0001) %MON DYU_max                      =   3.2380418162750E+05
(PID.TID 0000.0001) %MON DYU_min                      =   8.0152299824136E+04
(PID.TID 0000.0001) %MON DYU_mean                     =   2.8603970633619E+05
(PID.TID 0000.0001) %MON DYU_sd                       =   3.4145142117723E+04
(PID.TID 0000.0001) %MON RA_max                       =   1.0479260248419E+11
(PID.TID 0000.0001) %MON RA_min                       =   1.4019007022556E+10
(PID.TID 0000.0001) %MON RA_mean                      =   8.2992246709265E+10
(PID.TID 0000.0001) %MON RA_sd                        =   1.7509089299457E+10
(PID.TID 0000.0001) %MON RAW_max                      =   1.0480965274559E+11
(PID.TID 0000.0001) %MON RAW_min                      =   1.2166903467143E+10
(PID.TID 0000.0001) %MON RAW_mean                     =   8.2992246709235E+10
(PID.TID 0000.0001) %MON RAW_sd                       =   1.7481917919656E+10
(PID.TID 0000.0001) %MON RAS_max                      =   1.0480965274559E+11
(PID.TID 0000.0001) %MON RAS_min                      =   1.2166903467143E+10
(PID.TID 0000.0001) %MON RAS_mean                     =   8.2992246709235E+10
(PID.TID 0000.0001) %MON RAS_sd                       =   1.7481917919656E+10
(PID.TID 0000.0001) %MON RAZ_max                      =   1.0484349334619E+11
(PID.TID 0000.0001) %MON RAZ_min                      =   8.8317900612505E+09
(PID.TID 0000.0001) %MON RAZ_mean                     =   8.2992246709235E+10
(PID.TID 0000.0001) %MON RAZ_sd                       =   1.7482297311044E+10
(PID.TID 0000.0001) %MON AngleCS_max                  =   9.9999994756719E-01
(PID.TID 0000.0001) %MON AngleCS_min                  =  -9.9968286884824E-01
(PID.TID 0000.0001) %MON AngleCS_mean                 =   3.3078922539000E-01
(PID.TID 0000.0001) %MON AngleCS_sd                   =   6.2496278958502E-01
(PID.TID 0000.0001) %MON AngleSN_max                  =   9.9968286884824E-01
(PID.TID 0000.0001) %MON AngleSN_min                  =  -9.9999994756719E-01
(PID.TID 0000.0001) %MON AngleSN_mean                 =  -3.3078922539000E-01
(PID.TID 0000.0001) %MON AngleSN_sd                   =   6.2496278958502E-01
(PID.TID 0000.0001) 
(PID.TID 0000.0001) SET_REF_STATE: PhiRef/g [m] at level Center (integer)
(PID.TID 0000.0001)                      and at level Interface (half-int.) :
(PID.TID 0000.0001)  K=  0.5  ;  r=       100000.0  ;  phiRef/g=        0.000
(PID.TID 0000.0001)  K=  1.0  ;  r=        97500.0  ;  phiRef/g=      217.756
(PID.TID 0000.0001)  K=  1.5  ;  r=        95000.0  ;  phiRef/g=      441.641
(PID.TID 0000.0001)  K=  2.0  ;  r=        92500.0  ;  phiRef/g=      665.527
(PID.TID 0000.0001)  K=  2.5  ;  r=        90000.0  ;  phiRef/g=      898.232
(PID.TID 0000.0001)  K=  3.0  ;  r=        87500.0  ;  phiRef/g=     1130.936
(PID.TID 0000.0001)  K=  3.5  ;  r=        85000.0  ;  phiRef/g=     1373.343
(PID.TID 0000.0001)  K=  4.0  ;  r=        82500.0  ;  phiRef/g=     1615.750
(PID.TID 0000.0001)  K=  4.5  ;  r=        80000.0  ;  phiRef/g=     1868.890
(PID.TID 0000.0001)  K=  5.0  ;  r=        77500.0  ;  phiRef/g=     2122.030
(PID.TID 0000.0001)  K=  5.5  ;  r=        75000.0  ;  phiRef/g=     2387.120
(PID.TID 0000.0001)  K=  6.0  ;  r=        72500.0  ;  phiRef/g=     2652.210
(PID.TID 0000.0001)  K=  6.5  ;  r=        70000.0  ;  phiRef/g=     2930.701
(PID.TID 0000.0001)  K=  7.0  ;  r=        67500.0  ;  phiRef/g=     3209.191
(PID.TID 0000.0001)  K=  7.5  ;  r=        65000.0  ;  phiRef/g=     3502.833
(PID.TID 0000.0001)  K=  8.0  ;  r=        62500.0  ;  phiRef/g=     3796.475
(PID.TID 0000.0001)  K=  8.5  ;  r=        60000.0  ;  phiRef/g=     4107.410
(PID.TID 0000.0001)  K=  9.0  ;  r=        57500.0  ;  phiRef/g=     4418.346
(PID.TID 0000.0001)  K=  9.5  ;  r=        55000.0  ;  phiRef/g=     4749.242
(PID.TID 0000.0001)  K= 10.0  ;  r=        52500.0  ;  phiRef/g=     5080.138
(PID.TID 0000.0001)  K= 10.5  ;  r=        50000.0  ;  phiRef/g=     5434.377
(PID.TID 0000.0001)  K= 11.0  ;  r=        47500.0  ;  phiRef/g=     5788.616
(PID.TID 0000.0001)  K= 11.5  ;  r=        45000.0  ;  phiRef/g=     6170.588
(PID.TID 0000.0001)  K= 12.0  ;  r=        42500.0  ;  phiRef/g=     6552.561
(PID.TID 0000.0001)  K= 12.5  ;  r=        40000.0  ;  phiRef/g=     6968.129
(PID.TID 0000.0001)  K= 13.0  ;  r=        37500.0  ;  phiRef/g=     7383.698
(PID.TID 0000.0001)  K= 13.5  ;  r=        35000.0  ;  phiRef/g=     7840.967
(PID.TID 0000.0001)  K= 14.0  ;  r=        32500.0  ;  phiRef/g=     8298.236
(PID.TID 0000.0001)  K= 14.5  ;  r=        30000.0  ;  phiRef/g=     8808.923
(PID.TID 0000.0001)  K= 15.0  ;  r=        27500.0  ;  phiRef/g=     9319.611
(PID.TID 0000.0001)  K= 15.5  ;  r=        25000.0  ;  phiRef/g=     9901.695
(PID.TID 0000.0001)  K= 16.0  ;  r=        22500.0  ;  phiRef/g=    10483.779
(PID.TID 0000.0001)  K= 16.5  ;  r=        20000.0  ;  phiRef/g=    11167.236
(PID.TID 0000.0001)  K= 17.0  ;  r=        17500.0  ;  phiRef/g=    11850.692
(PID.TID 0000.0001)  K= 17.5  ;  r=        15000.0  ;  phiRef/g=    12692.183
(PID.TID 0000.0001)  K= 18.0  ;  r=        12500.0  ;  phiRef/g=    13533.673
(PID.TID 0000.0001)  K= 18.5  ;  r=        10000.0  ;  phiRef/g=    14666.133
(PID.TID 0000.0001)  K= 19.0  ;  r=         7500.0  ;  phiRef/g=    15798.592
(PID.TID 0000.0001)  K= 19.5  ;  r=         5000.0  ;  phiRef/g=    17740.093
(PID.TID 0000.0001)  K= 20.0  ;  r=         2500.0  ;  phiRef/g=    19681.595
(PID.TID 0000.0001)  K= 20.5  ;  r=            0.0  ;  phiRef/g=    30212.110
(PID.TID 0000.0001) // =======================================================
(PID.TID 0000.0001) // Field Model R_low (ini_masks_etc)
(PID.TID 0000.0001) // CMIN =          1.000000000000000E+32
(PID.TID 0000.0001) // CMAX =         -1.000000000000000E+32
(PID.TID 0000.0001) // CINT =          0.000000000000000E+00
(PID.TID 0000.0001) // SYMBOLS (CMIN->CMAX): -abcdefghijklmnopqrstuvwxyz+
(PID.TID 0000.0001) //                  0.0: .
(PID.TID 0000.0001) // RANGE I (Lo:Hi:Step):(    -1:   194:     1)
(PID.TID 0000.0001) // RANGE J (Lo:Hi:Step):(    34:    -1:    -1)
(PID.TID 0000.0001) // RANGE K (Lo:Hi:Step):(   1:   1:   1)
(PID.TID 0000.0001) // =======================================================
(PID.TID 0000.0001) // =======================================================
(PID.TID 0000.0001) // END OF FIELD                                          =
(PID.TID 0000.0001) // =======================================================
(PID.TID 0000.0001) 
(PID.TID 0000.0001) // =======================================================
(PID.TID 0000.0001) // Field Model Ro_surf (ini_masks_etc)
(PID.TID 0000.0001) // CMIN =          1.000000000000000E+05
(PID.TID 0000.0001) // CMAX =          1.000000000000000E+05
(PID.TID 0000.0001) // CINT =          0.000000000000000E+00
(PID.TID 0000.0001) // SYMBOLS (CMIN->CMAX): -abcdefghijklmnopqrstuvwxyz+
(PID.TID 0000.0001) //                  0.0: .
(PID.TID 0000.0001) // RANGE I (Lo:Hi:Step):(    -1:   194:     1)
(PID.TID 0000.0001) // RANGE J (Lo:Hi:Step):(    34:    -1:    -1)
(PID.TID 0000.0001) // RANGE K (Lo:Hi:Step):(   1:   1:   1)
(PID.TID 0000.0001) // =======================================================
(PID.TID 0000.0001) // =======================================================
(PID.TID 0000.0001) // END OF FIELD                                          =
(PID.TID 0000.0001) // =======================================================
(PID.TID 0000.0001) 
(PID.TID 0000.0001) // =======================================================
(PID.TID 0000.0001) // Field hFacC at iteration          0
(PID.TID 0000.0001) // CMIN =          1.000000000000000E+00
(PID.TID 0000.0001) // CMAX =          1.000000000000000E+00
(PID.TID 0000.0001) // CINT =          0.000000000000000E+00
(PID.TID 0000.0001) // SYMBOLS (CMIN->CMAX): -abcdefghijklmnopqrstuvwxyz+
(PID.TID 0000.0001) //                  0.0: .
(PID.TID 0000.0001) // RANGE I (Lo:Hi:Step):(    -1:   194:     1)
(PID.TID 0000.0001) // RANGE J (Lo:Hi:Step):(    34:    -1:    -1)
(PID.TID 0000.0001) // RANGE K (Lo:Hi:Step):(   1:   1:   1)
(PID.TID 0000.0001) // =======================================================
(PID.TID 0000.0001) // =======================================================
(PID.TID 0000.0001) // END OF FIELD                                          =
(PID.TID 0000.0001) // =======================================================
(PID.TID 0000.0001) 
(PID.TID 0000.0001) // =======================================================
(PID.TID 0000.0001) // Field hFacW at iteration          0
(PID.TID 0000.0001) // CMIN =          1.000000000000000E+00
(PID.TID 0000.0001) // CMAX =          1.000000000000000E+00
(PID.TID 0000.0001) // CINT =          0.000000000000000E+00
(PID.TID 0000.0001) // SYMBOLS (CMIN->CMAX): -abcdefghijklmnopqrstuvwxyz+
(PID.TID 0000.0001) //                  0.0: .
(PID.TID 0000.0001) // RANGE I (Lo:Hi:Step):(    -1:   194:     1)
(PID.TID 0000.0001) // RANGE J (Lo:Hi:Step):(    34:    -1:    -1)
(PID.TID 0000.0001) // RANGE K (Lo:Hi:Step):(   1:   1:   1)
(PID.TID 0000.0001) // =======================================================
(PID.TID 0000.0001) // =======================================================
(PID.TID 0000.0001) // END OF FIELD                                          =
(PID.TID 0000.0001) // =======================================================
(PID.TID 0000.0001) 
(PID.TID 0000.0001) // =======================================================
(PID.TID 0000.0001) // Field hFacS at iteration          0
(PID.TID 0000.0001) // CMIN =          1.000000000000000E+00
(PID.TID 0000.0001) // CMAX =          1.000000000000000E+00
(PID.TID 0000.0001) // CINT =          0.000000000000000E+00
(PID.TID 0000.0001) // SYMBOLS (CMIN->CMAX): -abcdefghijklmnopqrstuvwxyz+
(PID.TID 0000.0001) //                  0.0: .
(PID.TID 0000.0001) // RANGE I (Lo:Hi:Step):(    -1:   194:     1)
(PID.TID 0000.0001) // RANGE J (Lo:Hi:Step):(    34:    -1:    -1)
(PID.TID 0000.0001) // RANGE K (Lo:Hi:Step):(   1:   1:   1)
(PID.TID 0000.0001) // =======================================================
(PID.TID 0000.0001) // =======================================================
(PID.TID 0000.0001) // END OF FIELD                                          =
(PID.TID 0000.0001) // =======================================================
(PID.TID 0000.0001) 
(PID.TID 0000.0001) GAD_INIT_FIXED: GAD_OlMinSize=  1  0  1
(PID.TID 0000.0001) 
(PID.TID 0000.0001) // ===================================
(PID.TID 0000.0001) // GAD parameters :
(PID.TID 0000.0001) // ===================================
(PID.TID 0000.0001) tempAdvScheme =   /* Temp. Horiz.Advection scheme selector */
(PID.TID 0000.0001)                       2
(PID.TID 0000.0001)     ;
(PID.TID 0000.0001) tempVertAdvScheme =   /* Temp. Vert. Advection scheme selector */
(PID.TID 0000.0001)                       2
(PID.TID 0000.0001)     ;
(PID.TID 0000.0001) tempMultiDimAdvec =   /* use Muti-Dim Advec method for Temp */
(PID.TID 0000.0001)                   F
(PID.TID 0000.0001)     ;
(PID.TID 0000.0001) tempSOM_Advection = /* use 2nd Order Moment Advection for Temp */
(PID.TID 0000.0001)                   F
(PID.TID 0000.0001)     ;
(PID.TID 0000.0001) AdamsBashforthGt = /* apply Adams-Bashforth extrapolation on Gt */
(PID.TID 0000.0001)                   T
(PID.TID 0000.0001)     ;
(PID.TID 0000.0001) AdamsBashforth_T = /* apply Adams-Bashforth extrapolation on Temp */
(PID.TID 0000.0001)                   F
(PID.TID 0000.0001)     ;
(PID.TID 0000.0001) saltAdvScheme =   /* Salt. Horiz.advection scheme selector */
(PID.TID 0000.0001)                       2
(PID.TID 0000.0001)     ;
(PID.TID 0000.0001) saltVertAdvScheme =   /* Salt. Vert. Advection scheme selector */
(PID.TID 0000.0001)                       2
(PID.TID 0000.0001)     ;
(PID.TID 0000.0001) saltMultiDimAdvec =   /* use Muti-Dim Advec method for Salt */
(PID.TID 0000.0001)                   F
(PID.TID 0000.0001)     ;
(PID.TID 0000.0001) saltSOM_Advection = /* use 2nd Order Moment Advection for Salt */
(PID.TID 0000.0001)                   F
(PID.TID 0000.0001)     ;
(PID.TID 0000.0001) AdamsBashforthGs = /* apply Adams-Bashforth extrapolation on Gs */
(PID.TID 0000.0001)                   F
(PID.TID 0000.0001)     ;
(PID.TID 0000.0001) AdamsBashforth_S = /* apply Adams-Bashforth extrapolation on Salt */
(PID.TID 0000.0001)                   F
(PID.TID 0000.0001)     ;
(PID.TID 0000.0001) // ===================================
(PID.TID 0000.0001) ------------------------------------------------------------
(PID.TID 0000.0001) DIAGNOSTICS_SET_LEVELS: done
(PID.TID 0000.0001)  Total Nb of available Diagnostics: ndiagt=   187
(PID.TID 0000.0001)  write list of available Diagnostics to file: available_diagnostics.log
(PID.TID 0000.0001) SETDIAG: Allocate  1 x  1 Levels for Diagnostic #    23 ETAN
(PID.TID 0000.0001) SETDIAG: Allocate  1 x  1 Levels for Diagnostic #    24 ETANSQ
(PID.TID 0000.0001) SETDIAG: Allocate  1 x  1 Levels for Diagnostic #    25 DETADT2
(PID.TID 0000.0001) SETDIAG: Allocate 20 x  1 Levels for Diagnostic #    29 UVEL
(PID.TID 0000.0001) SETDIAG: Allocate 20 x  1 Levels for Diagnostic #    30 VVEL
(PID.TID 0000.0001) SETDIAG: Allocate 20 x  1 Levels for Diagnostic #    31 WVEL
(PID.TID 0000.0001) SETDIAG: Allocate 20 x  1 Levels for Diagnostic #    26 THETA
(PID.TID 0000.0001) SETDIAG: Allocate 20 x  1 Levels for Diagnostic #   185 SHAP_dU
(PID.TID 0000.0001) SETDIAG: Allocate 20 x  1 Levels for Diagnostic #    34 UVELSQ
(PID.TID 0000.0001) SETDIAG: Allocate 20 x  1 Levels for Diagnostic #    35 VVELSQ
(PID.TID 0000.0001) SETDIAG: Allocate 20 x  1 Levels for Diagnostic #    36 WVELSQ
(PID.TID 0000.0001) SETDIAG: Allocate 20 x  1 Levels for Diagnostic #    32 THETASQ
(PID.TID 0000.0001) SETDIAG: Allocate 20 x  1 Levels for Diagnostic #    48 UTHMASS
(PID.TID 0000.0001) SETDIAG: Allocate 20 x  1 Levels for Diagnostic #    49 VTHMASS
(PID.TID 0000.0001) SETDIAG: Allocate 20 x  1 Levels for Diagnostic #    56 WVELTH
(PID.TID 0000.0001) SETDIAG: Allocate 20 x  1 Levels for Diagnostic #    39 UV_VEL_C
(PID.TID 0000.0001)   space allocated for all diagnostics:     263 levels
(PID.TID 0000.0001)   set mate pointer for diag #    29  UVEL     , Parms: UUR     MR , mate:    30
(PID.TID 0000.0001)   set mate pointer for diag #    30  VVEL     , Parms: VVR     MR , mate:    29
(PID.TID 0000.0001)   set mate pointer for diag #    34  UVELSQ   , Parms: UURP    MR , mate:    35
(PID.TID 0000.0001)   set mate pointer for diag #    35  VVELSQ   , Parms: VVRP    MR , mate:    34
(PID.TID 0000.0001)   set mate pointer for diag #    48  UTHMASS  , Parms: UUr     MR , mate:    49
(PID.TID 0000.0001)   set mate pointer for diag #    49  VTHMASS  , Parms: VVr     MR , mate:    48
(PID.TID 0000.0001)   set mate pointer for diag #    39  UV_VEL_C , Parms: UMR     MR , mate:    39
(PID.TID 0000.0001) DIAGNOSTICS_SET_POINTERS: Set levels for Outp.Stream: dynDiag
(PID.TID 0000.0001)  Levels:       1.   2.   3.   4.   5.   6.   7.   8.   9.  10.  11.  12.  13.  14.  15.  16.  17.  18.  19.  20.
(PID.TID 0000.0001) DIAGNOSTICS_SET_POINTERS: Set levels for Outp.Stream: secmomDiag
(PID.TID 0000.0001)  Levels:       1.   2.   3.   4.   5.   6.   7.   8.   9.  10.  11.  12.  13.  14.  15.  16.  17.  18.  19.  20.
(PID.TID 0000.0001) DIAGNOSTICS_SET_POINTERS: done
(PID.TID 0000.0001) ------------------------------------------------------------
(PID.TID 0000.0001) DIAGSTATS_SET_REGIONS: define no region
(PID.TID 0000.0001) ------------------------------------------------------------
(PID.TID 0000.0001) SETDIAG: Allocate  1 Levels for Stats-Diag #    23 ETAN
(PID.TID 0000.0001) SETDIAG: Allocate 20 Levels for Stats-Diag #    29 UVEL
(PID.TID 0000.0001) SETDIAG: Allocate 20 Levels for Stats-Diag #    30 VVEL
(PID.TID 0000.0001) SETDIAG: Allocate 20 Levels for Stats-Diag #    31 WVEL
(PID.TID 0000.0001) SETDIAG: Allocate 20 Levels for Stats-Diag #    26 THETA
(PID.TID 0000.0001)   space allocated for all stats-diags:      81 levels
(PID.TID 0000.0001) DIAGSTATS_SET_POINTERS: done
(PID.TID 0000.0001) ------------------------------------------------------------
(PID.TID 0000.0001) DIAGSTATS_INI_IO: open file: dynStDiag.0000276480.txt , unit=     9
(PID.TID 0000.0001) INI_GLOBAL_DOMAIN: Found  24 CS-corner Pts in the domain
(PID.TID 0000.0001) %MON fCori_max                    =   1.4535016908525E-04
(PID.TID 0000.0001) %MON fCori_min                    =  -1.4535016908525E-04
(PID.TID 0000.0001) %MON fCori_mean                   =   0.0000000000000E+00
(PID.TID 0000.0001) %MON fCori_sd                     =   8.3972192788621E-05
(PID.TID 0000.0001) %MON fCoriG_max                   =   1.4544410433286E-04
(PID.TID 0000.0001) %MON fCoriG_min                   =  -1.4544410433286E-04
(PID.TID 0000.0001) %MON fCoriG_mean                  =   0.0000000000000E+00
(PID.TID 0000.0001) %MON fCoriG_sd                    =   8.3972192788621E-05
(PID.TID 0000.0001) %MON fCoriCos_max                 =   1.4540341538469E-04
(PID.TID 0000.0001) %MON fCoriCos_min                 =   5.2264550201501E-06
(PID.TID 0000.0001) %MON fCoriCos_mean                =   1.1482595466044E-04
(PID.TID 0000.0001) %MON fCoriCos_sd                  =   3.0292878037194E-05
(PID.TID 0000.0001) INI_CG2D: CG2D normalisation factor =  9.9119603843467495E-06
(PID.TID 0000.0001) INI_CG2D: cg2dTolerance = 1.123144856357769E-10 (Area=5.0990436378E+14)
(PID.TID 0000.0001) 
(PID.TID 0000.0001) // =======================================================
(PID.TID 0000.0001) // Model configuration
(PID.TID 0000.0001) // =======================================================
(PID.TID 0000.0001) //
(PID.TID 0000.0001) // "Physical" paramters ( PARM01 in namelist )
(PID.TID 0000.0001) //
(PID.TID 0000.0001) buoyancyRelation = /* Type of relation to get Buoyancy */
(PID.TID 0000.0001)               'ATMOSPHERIC'
(PID.TID 0000.0001)     ;
(PID.TID 0000.0001) fluidIsAir   =  /* fluid major constituent is Air */
(PID.TID 0000.0001)                   T
(PID.TID 0000.0001)     ;
(PID.TID 0000.0001) fluidIsWater =  /* fluid major constituent is Water */
(PID.TID 0000.0001)                   F
(PID.TID 0000.0001)     ;
(PID.TID 0000.0001) usingPCoords =  /* use p (or p*) vertical coordinate */
(PID.TID 0000.0001)                   T
(PID.TID 0000.0001)     ;
(PID.TID 0000.0001) usingZCoords =  /* use z (or z*) vertical coordinate */
(PID.TID 0000.0001)                   F
(PID.TID 0000.0001)     ;
(PID.TID 0000.0001) tRef =   /* Reference temperature profile ( oC or K ) */
(PID.TID 0000.0001)                 2.952000000000000E+02,      /* K =  1 */
(PID.TID 0000.0001)                 2.955000000000000E+02,      /* K =  2 */
(PID.TID 0000.0001)                 2.959000000000000E+02,      /* K =  3 */
(PID.TID 0000.0001)                 2.963000000000000E+02,      /* K =  4 */
(PID.TID 0000.0001)                 2.967000000000000E+02,      /* K =  5 */
(PID.TID 0000.0001)                 2.971000000000000E+02,      /* K =  6 */
(PID.TID 0000.0001)                 2.976000000000000E+02,      /* K =  7 */
(PID.TID 0000.0001)                 2.981000000000000E+02,      /* K =  8 */
(PID.TID 0000.0001)                 2.987000000000000E+02,      /* K =  9 */
(PID.TID 0000.0001)                 2.993000000000000E+02,      /* K = 10 */
(PID.TID 0000.0001)                 3.000000000000000E+02,      /* K = 11 */
(PID.TID 0000.0001)                 3.007000000000000E+02,      /* K = 12 */
(PID.TID 0000.0001)                 3.019000000000000E+02,      /* K = 13 */
(PID.TID 0000.0001)                 3.041000000000000E+02,      /* K = 14 */
(PID.TID 0000.0001)                 3.080000000000000E+02,      /* K = 15 */
(PID.TID 0000.0001)                 3.151000000000000E+02,      /* K = 16 */
(PID.TID 0000.0001)                 3.295000000000000E+02,      /* K = 17 */
(PID.TID 0000.0001)                 3.623000000000000E+02,      /* K = 18 */
(PID.TID 0000.0001)                 4.192000000000000E+02,      /* K = 19 */
(PID.TID 0000.0001)                 5.738000000000000E+02       /* K = 20 */
(PID.TID 0000.0001)     ;
(PID.TID 0000.0001) sRef =   /* Reference salinity profile ( psu ) */
(PID.TID 0000.0001)    20 @  0.000000000000000E+00              /* K =  1: 20 */
(PID.TID 0000.0001)     ;
(PID.TID 0000.0001) useStrainTensionVisc= /* Use StrainTension Form of Viscous Operator */
(PID.TID 0000.0001)                   F
(PID.TID 0000.0001)     ;
(PID.TID 0000.0001) useVariableVisc = /* Use variable horizontal viscosity */
(PID.TID 0000.0001)                   F
(PID.TID 0000.0001)     ;
(PID.TID 0000.0001) useHarmonicVisc = /* Use harmonic horizontal viscosity */
(PID.TID 0000.0001)                   F
(PID.TID 0000.0001)     ;
(PID.TID 0000.0001) useBiharmonicVisc= /* Use biharmonic horiz.  viscosity */
(PID.TID 0000.0001)                   F
(PID.TID 0000.0001)     ;
(PID.TID 0000.0001) useSmag3D = /* Use isotropic 3-D Smagorinsky viscosity */
(PID.TID 0000.0001)                   F
(PID.TID 0000.0001)     ;
(PID.TID 0000.0001) viscAh  =   /* Lateral harmonic viscosity ( m^2/s ) */
(PID.TID 0000.0001)                 0.000000000000000E+00
(PID.TID 0000.0001)     ;
(PID.TID 0000.0001) viscA4  =   /* Lateral biharmonic viscosity ( m^4/s ) */
(PID.TID 0000.0001)                 0.000000000000000E+00
(PID.TID 0000.0001)     ;
(PID.TID 0000.0001) no_slip_sides =  /* Viscous BCs: No-slip sides */
(PID.TID 0000.0001)                   F
(PID.TID 0000.0001)     ;
(PID.TID 0000.0001) sideDragFactor = /* side-drag scaling factor (non-dim) */
(PID.TID 0000.0001)                 2.000000000000000E+00
(PID.TID 0000.0001)     ;
(PID.TID 0000.0001) viscArNr = /* vertical profile of vertical viscosity (Pa^2/s )*/
(PID.TID 0000.0001)    20 @  0.000000000000000E+00              /* K =  1: 20 */
(PID.TID 0000.0001)     ;
(PID.TID 0000.0001) no_slip_bottom =  /* Viscous BCs: No-slip bottom */
(PID.TID 0000.0001)                   F
(PID.TID 0000.0001)     ;
(PID.TID 0000.0001) bottomDragLinear = /* linear bottom-drag coefficient ( m/s ) */
(PID.TID 0000.0001)                 0.000000000000000E+00
(PID.TID 0000.0001)     ;
(PID.TID 0000.0001) bottomDragQuadratic = /* quadratic bottom-drag coefficient (-) */
(PID.TID 0000.0001)                 0.000000000000000E+00
(PID.TID 0000.0001)     ;
(PID.TID 0000.0001) diffKhT =   /* Laplacian diffusion of heat laterally ( m^2/s ) */
(PID.TID 0000.0001)                 0.000000000000000E+00
(PID.TID 0000.0001)     ;
(PID.TID 0000.0001) diffK4T =   /* Biharmonic diffusion of heat laterally ( m^4/s ) */
(PID.TID 0000.0001)                 0.000000000000000E+00
(PID.TID 0000.0001)     ;
(PID.TID 0000.0001) diffKhS =   /* Laplacian diffusion of salt laterally ( m^2/s ) */
(PID.TID 0000.0001)                 0.000000000000000E+00
(PID.TID 0000.0001)     ;
(PID.TID 0000.0001) diffK4S =   /* Biharmonic diffusion of salt laterally ( m^4/s ) */
(PID.TID 0000.0001)                 0.000000000000000E+00
(PID.TID 0000.0001)     ;
(PID.TID 0000.0001) diffKrNrT = /* vertical profile of vertical diffusion of Temp (Pa^2/s )*/
(PID.TID 0000.0001)    20 @  0.000000000000000E+00              /* K =  1: 20 */
(PID.TID 0000.0001)     ;
(PID.TID 0000.0001) diffKrNrS = /* vertical profile of vertical diffusion of Salt (Pa^2/s )*/
(PID.TID 0000.0001)    20 @  0.000000000000000E+00              /* K =  1: 20 */
(PID.TID 0000.0001)     ;
(PID.TID 0000.0001) diffKrBL79surf = /* Surface diffusion for Bryan and Lewis 79 ( m^2/s ) */
(PID.TID 0000.0001)                 0.000000000000000E+00
(PID.TID 0000.0001)     ;
(PID.TID 0000.0001) diffKrBL79deep = /* Deep diffusion for Bryan and Lewis 1979 ( m^2/s ) */
(PID.TID 0000.0001)                 0.000000000000000E+00
(PID.TID 0000.0001)     ;
(PID.TID 0000.0001) diffKrBL79scl = /* Depth scale for Bryan and Lewis 1979 ( m ) */
(PID.TID 0000.0001)                 2.000000000000000E+02
(PID.TID 0000.0001)     ;
(PID.TID 0000.0001) diffKrBL79Ho = /* Turning depth for Bryan and Lewis 1979 ( m ) */
(PID.TID 0000.0001)                -2.000000000000000E+03
(PID.TID 0000.0001)     ;
(PID.TID 0000.0001) ivdc_kappa = /* Implicit Vertical Diffusivity for Convection (Pa^2/s) */
(PID.TID 0000.0001)                 0.000000000000000E+00
(PID.TID 0000.0001)     ;
(PID.TID 0000.0001) hMixCriteria=  /* Criteria for mixed-layer diagnostic */
(PID.TID 0000.0001)                -8.000000000000000E-01
(PID.TID 0000.0001)     ;
(PID.TID 0000.0001) dRhoSmall =  /* Parameter for mixed-layer diagnostic */
(PID.TID 0000.0001)                 1.000000000000000E-06
(PID.TID 0000.0001)     ;
(PID.TID 0000.0001) hMixSmooth=  /* Smoothing parameter for mixed-layer diagnostic */
(PID.TID 0000.0001)                 0.000000000000000E+00
(PID.TID 0000.0001)     ;
(PID.TID 0000.0001) eosType =  /* Type of Equation of State */
(PID.TID 0000.0001)               'IDEALG'
(PID.TID 0000.0001)     ;
(PID.TID 0000.0001) celsius2K = /* 0 degree Celsius converted to Kelvin ( K ) */
(PID.TID 0000.0001)                 2.731500000000000E+02
(PID.TID 0000.0001)     ;
(PID.TID 0000.0001) atm_Rd =    /* gas constant for dry air ( J/kg/K ) */
(PID.TID 0000.0001)                 2.868571428571428E+02
(PID.TID 0000.0001)     ;
(PID.TID 0000.0001) atm_Cp =    /* specific heat (Cp) of dry air ( J/kg/K ) */
(PID.TID 0000.0001)                 1.004000000000000E+03
(PID.TID 0000.0001)     ;
(PID.TID 0000.0001) atm_kappa = /* kappa (=Rd/Cp ) of dry air */
(PID.TID 0000.0001)                 2.857142857142857E-01
(PID.TID 0000.0001)     ;
(PID.TID 0000.0001) atm_Rq =  /* water vap. specific vol. anomaly relative to dry air */
(PID.TID 0000.0001)                 0.000000000000000E+00
(PID.TID 0000.0001)     ;
(PID.TID 0000.0001) atm_Po =    /* standard reference pressure ( Pa ) */
(PID.TID 0000.0001)                 1.000000000000000E+05
(PID.TID 0000.0001)     ;
(PID.TID 0000.0001) thetaConst= /* constant reference for potential temperature ( K ) */
(PID.TID 0000.0001)                 2.952000000000000E+02
(PID.TID 0000.0001)     ;
(PID.TID 0000.0001) integr_GeoPot =  /* select how the geopotential is integrated */
(PID.TID 0000.0001)                       2
(PID.TID 0000.0001)     ;
(PID.TID 0000.0001) selectFindRoSurf=  /* select how Surf.Ref. pressure is defined */
(PID.TID 0000.0001)                       0
(PID.TID 0000.0001)     ;
(PID.TID 0000.0001) rhoConst  = /* Reference density (Boussinesq)  ( kg/m^3 ) */
(PID.TID 0000.0001)                 9.998000000000000E+02
(PID.TID 0000.0001)     ;
(PID.TID 0000.0001) rhoFacC = /* normalized Reference density @ cell-Center (-) */
(PID.TID 0000.0001)    20 @  1.000000000000000E+00              /* K =  1: 20 */
(PID.TID 0000.0001)     ;
(PID.TID 0000.0001) rhoFacF = /* normalized Reference density @ W-Interface (-) */
(PID.TID 0000.0001)    21 @  1.000000000000000E+00              /* K =  1: 21 */
(PID.TID 0000.0001)     ;
(PID.TID 0000.0001) rhoConstFresh = /* Fresh-water reference density ( kg/m^3 ) */
(PID.TID 0000.0001)                 9.998000000000000E+02
(PID.TID 0000.0001)     ;
(PID.TID 0000.0001) gravity =   /* Gravitational acceleration ( m/s^2 ) */
(PID.TID 0000.0001)                 9.810000000000000E+00
(PID.TID 0000.0001)     ;
(PID.TID 0000.0001) gBaro =   /* Barotropic gravity ( m/s^2 ) */
(PID.TID 0000.0001)                 9.810000000000000E+00
(PID.TID 0000.0001)     ;
(PID.TID 0000.0001) rotationPeriod =   /* Rotation Period ( s ) */
(PID.TID 0000.0001)                 8.640000000000000E+04
(PID.TID 0000.0001)     ;
(PID.TID 0000.0001) omega =   /* Angular velocity ( rad/s ) */
(PID.TID 0000.0001)                 7.272205216643040E-05
(PID.TID 0000.0001)     ;
(PID.TID 0000.0001) f0 =   /* Reference coriolis parameter ( 1/s ) */
(PID.TID 0000.0001)                 1.000000000000000E-04
(PID.TID 0000.0001)     ;
(PID.TID 0000.0001) beta =   /* Beta ( 1/(m.s) ) */
(PID.TID 0000.0001)                 9.999999999999999E-12
(PID.TID 0000.0001)     ;
(PID.TID 0000.0001) fPrime =   /* Second coriolis parameter ( 1/s ) */
(PID.TID 0000.0001)                 0.000000000000000E+00
(PID.TID 0000.0001)     ;
(PID.TID 0000.0001) rigidLid =   /* Rigid lid on/off flag */
(PID.TID 0000.0001)                   F
(PID.TID 0000.0001)     ;
(PID.TID 0000.0001) implicitFreeSurface =   /* Implicit free surface on/off flag */
(PID.TID 0000.0001)                   T
(PID.TID 0000.0001)     ;
(PID.TID 0000.0001) freeSurfFac =   /* Implicit free surface factor */
(PID.TID 0000.0001)                 1.000000000000000E+00
(PID.TID 0000.0001)     ;
(PID.TID 0000.0001) implicSurfPress =  /* Surface Pressure implicit factor (0-1)*/
(PID.TID 0000.0001)                 1.000000000000000E+00
(PID.TID 0000.0001)     ;
(PID.TID 0000.0001) implicDiv2Dflow =  /* Barot. Flow Div. implicit factor (0-1)*/
(PID.TID 0000.0001)                 1.000000000000000E+00
(PID.TID 0000.0001)     ;
(PID.TID 0000.0001) uniformLin_PhiSurf = /* use uniform Bo_surf on/off flag*/
(PID.TID 0000.0001)                   F
(PID.TID 0000.0001)     ;
(PID.TID 0000.0001) uniformFreeSurfLev = /* free-surface level-index is uniform */
(PID.TID 0000.0001)                   F
(PID.TID 0000.0001)     ;
(PID.TID 0000.0001) hFacMin =   /* minimum partial cell factor (hFac) */
(PID.TID 0000.0001)                 1.000000000000000E+00
(PID.TID 0000.0001)     ;
(PID.TID 0000.0001) hFacMinDr = /* minimum partial cell thickness (Pa) */
(PID.TID 0000.0001)                 0.000000000000000E+00
(PID.TID 0000.0001)     ;
(PID.TID 0000.0001) exactConserv =  /* Exact Volume Conservation on/off flag*/
(PID.TID 0000.0001)                   T
(PID.TID 0000.0001)     ;
(PID.TID 0000.0001) linFSConserveTr = /* Tracer correction for Lin Free Surface on/off flag*/
(PID.TID 0000.0001)                   F
(PID.TID 0000.0001)     ;
(PID.TID 0000.0001) nonlinFreeSurf = /* Non-linear Free Surf. options (-1,0,1,2,3)*/
(PID.TID 0000.0001)                       4
(PID.TID 0000.0001)      -1,0= Off ; 1,2,3= On, 2=+rescale gU,gV, 3=+update cg2d solv.
(PID.TID 0000.0001)     ;
(PID.TID 0000.0001) hFacInf =   /* lower threshold for hFac (nonlinFreeSurf only)*/
(PID.TID 0000.0001)                 2.000000000000000E-01
(PID.TID 0000.0001)     ;
(PID.TID 0000.0001) hFacSup =   /* upper threshold for hFac (nonlinFreeSurf only)*/
(PID.TID 0000.0001)                 2.000000000000000E+00
(PID.TID 0000.0001)     ;
(PID.TID 0000.0001) select_rStar = /* r* Vertical coord. options (=0 r coord.; >0 uses r*)*/
(PID.TID 0000.0001)                       2
(PID.TID 0000.0001)     ;
(PID.TID 0000.0001) useRealFreshWaterFlux = /* Real Fresh Water Flux on/off flag*/
(PID.TID 0000.0001)                   F
(PID.TID 0000.0001)     ;
(PID.TID 0000.0001) temp_EvPrRn = /* Temp. of Evap/Prec/R (UNSET=use local T)(oC)*/
(PID.TID 0000.0001)                 1.234567000000000E+05
(PID.TID 0000.0001)     ;
(PID.TID 0000.0001) salt_EvPrRn = /* Salin. of Evap/Prec/R (UNSET=use local S)(psu)*/
(PID.TID 0000.0001)                 0.000000000000000E+00
(PID.TID 0000.0001)     ;
(PID.TID 0000.0001) selectAddFluid = /* option for mass source/sink of fluid (=0: off) */
(PID.TID 0000.0001)                       0
(PID.TID 0000.0001)     ;
(PID.TID 0000.0001) temp_addMass = /* Temp. of addMass array (UNSET=use local T)(oC)*/
(PID.TID 0000.0001)                 1.234567000000000E+05
(PID.TID 0000.0001)     ;
(PID.TID 0000.0001) salt_addMass = /* Salin. of addMass array (UNSET=use local S)(psu)*/
(PID.TID 0000.0001)                 0.000000000000000E+00
(PID.TID 0000.0001)     ;
(PID.TID 0000.0001) convertFW2Salt = /* convert F.W. Flux to Salt Flux (-1=use local S)(psu)*/
(PID.TID 0000.0001)                 3.500000000000000E+01
(PID.TID 0000.0001)     ;
(PID.TID 0000.0001) use3Dsolver = /* use 3-D pressure solver on/off flag */
(PID.TID 0000.0001)                   F
(PID.TID 0000.0001)     ;
(PID.TID 0000.0001) nonHydrostatic =  /* Non-Hydrostatic on/off flag */
(PID.TID 0000.0001)                   F
(PID.TID 0000.0001)     ;
(PID.TID 0000.0001) nh_Am2 = /* Non-Hydrostatic terms scaling factor */
(PID.TID 0000.0001)                 1.000000000000000E+00
(PID.TID 0000.0001)     ;
(PID.TID 0000.0001) implicitNHPress = /* Non-Hyd Pressure implicit factor (0-1)*/
(PID.TID 0000.0001)                 1.000000000000000E+00
(PID.TID 0000.0001)     ;
(PID.TID 0000.0001) selectNHfreeSurf = /* Non-Hyd (free-)Surface option */
(PID.TID 0000.0001)                       0
(PID.TID 0000.0001)     ;
(PID.TID 0000.0001) quasiHydrostatic = /* Quasi-Hydrostatic on/off flag */
(PID.TID 0000.0001)                   F
(PID.TID 0000.0001)     ;
(PID.TID 0000.0001) calc_wVelocity = /* vertical velocity calculation on/off flag */
(PID.TID 0000.0001)                   T
(PID.TID 0000.0001)     ;
(PID.TID 0000.0001) momStepping =  /* Momentum equation on/off flag */
(PID.TID 0000.0001)                   T
(PID.TID 0000.0001)     ;
(PID.TID 0000.0001) vectorInvariantMomentum= /* Vector-Invariant Momentum on/off */
(PID.TID 0000.0001)                   T
(PID.TID 0000.0001)     ;
(PID.TID 0000.0001) momAdvection =  /* Momentum advection on/off flag */
(PID.TID 0000.0001)                   T
(PID.TID 0000.0001)     ;
(PID.TID 0000.0001) momViscosity =  /* Momentum viscosity on/off flag */
(PID.TID 0000.0001)                   F
(PID.TID 0000.0001)     ;
(PID.TID 0000.0001) momImplVertAdv= /* Momentum implicit vert. advection on/off*/
(PID.TID 0000.0001)                   F
(PID.TID 0000.0001)     ;
(PID.TID 0000.0001) implicitViscosity = /* Implicit viscosity on/off flag */
(PID.TID 0000.0001)                   F
(PID.TID 0000.0001)     ;
(PID.TID 0000.0001) metricTerms =  /* metric-Terms on/off flag */
(PID.TID 0000.0001)                   F
(PID.TID 0000.0001)     ;
(PID.TID 0000.0001) useNHMTerms = /* Non-Hydrostatic Metric-Terms on/off */
(PID.TID 0000.0001)                   F
(PID.TID 0000.0001)     ;
(PID.TID 0000.0001) selectCoriMap = /* Coriolis Map options (0,1,2,3)*/
(PID.TID 0000.0001)                       2
(PID.TID 0000.0001)     0= f-Plane ; 1= Beta-Plane ; 2= Spherical ; 3= read from file
(PID.TID 0000.0001)     ;
(PID.TID 0000.0001) use3dCoriolis = /* 3-D Coriolis on/off flag */
(PID.TID 0000.0001)                   F
(PID.TID 0000.0001)     ;
(PID.TID 0000.0001) useCoriolis =  /* Coriolis on/off flag */
(PID.TID 0000.0001)                   T
(PID.TID 0000.0001)     ;
(PID.TID 0000.0001) useCDscheme =  /* CD scheme on/off flag */
(PID.TID 0000.0001)                   F
(PID.TID 0000.0001)     ;
(PID.TID 0000.0001) useEnergyConservingCoriolis= /* Flx-Form Coriolis scheme flag */
(PID.TID 0000.0001)                   F
(PID.TID 0000.0001)     ;
(PID.TID 0000.0001) useJamartWetPoints= /* Coriolis WetPoints method flag */
(PID.TID 0000.0001)                   F
(PID.TID 0000.0001)     ;
(PID.TID 0000.0001) useJamartMomAdv= /* V.I Non-linear terms Jamart flag */
(PID.TID 0000.0001)                   F
(PID.TID 0000.0001)     ;
(PID.TID 0000.0001) useAbsVorticity= /* V.I Works with f+zeta in Coriolis */
(PID.TID 0000.0001)                   F
(PID.TID 0000.0001)     ;
(PID.TID 0000.0001) selectVortScheme= /* V.I Scheme selector for Vorticity-Term */
(PID.TID 0000.0001)                       1
(PID.TID 0000.0001)    = 0 : enstrophy (Shallow-Water Eq.) conserving scheme by Sadourny, JAS 75
(PID.TID 0000.0001)    = 1 : same as 0 with modified hFac
(PID.TID 0000.0001)    = 2 : energy conserving scheme (used by Sadourny in JAS 75 paper)
(PID.TID 0000.0001)    = 3 : energy (general) and enstrophy (2D, nonDiv.) conserving scheme
(PID.TID 0000.0001)          from Sadourny (Burridge & Haseler, ECMWF Rep.4, 1977)
(PID.TID 0000.0001)     ;
(PID.TID 0000.0001) upwindVorticity= /* V.I Upwind bias vorticity flag */
(PID.TID 0000.0001)                   F
(PID.TID 0000.0001)     ;
(PID.TID 0000.0001) highOrderVorticity= /* V.I High order vort. advect. flag */
(PID.TID 0000.0001)                   F
(PID.TID 0000.0001)     ;
(PID.TID 0000.0001) upwindShear= /* V.I Upwind vertical Shear advection flag */
(PID.TID 0000.0001)                   F
(PID.TID 0000.0001)     ;
(PID.TID 0000.0001) selectKEscheme= /* V.I Kinetic Energy scheme selector */
(PID.TID 0000.0001)                       0
(PID.TID 0000.0001)     ;
(PID.TID 0000.0001) momForcing =  /* Momentum forcing on/off flag */
(PID.TID 0000.0001)                   T
(PID.TID 0000.0001)     ;
(PID.TID 0000.0001) momPressureForcing =  /* Momentum pressure term on/off flag */
(PID.TID 0000.0001)                   T
(PID.TID 0000.0001)     ;
(PID.TID 0000.0001) implicitIntGravWave= /* Implicit Internal Gravity Wave flag */
(PID.TID 0000.0001)                   F
(PID.TID 0000.0001)     ;
(PID.TID 0000.0001) staggerTimeStep =    /* Stagger time stepping on/off flag */
(PID.TID 0000.0001)                   T
(PID.TID 0000.0001)     ;
(PID.TID 0000.0001) doResetHFactors = /* reset thickness factors @ each time-step */
(PID.TID 0000.0001)                   F
(PID.TID 0000.0001)     ;
(PID.TID 0000.0001) multiDimAdvection =  /* enable/disable Multi-Dim Advection */
(PID.TID 0000.0001)                   T
(PID.TID 0000.0001)     ;
(PID.TID 0000.0001) useMultiDimAdvec =   /* Multi-Dim Advection is/is-not used */
(PID.TID 0000.0001)                   F
(PID.TID 0000.0001)     ;
(PID.TID 0000.0001) implicitDiffusion = /* Implicit Diffusion on/off flag */
(PID.TID 0000.0001)                   F
(PID.TID 0000.0001)     ;
(PID.TID 0000.0001) tempStepping =  /* Temperature equation on/off flag */
(PID.TID 0000.0001)                   T
(PID.TID 0000.0001)     ;
(PID.TID 0000.0001) tempAdvection = /* Temperature advection on/off flag */
(PID.TID 0000.0001)                   T
(PID.TID 0000.0001)     ;
(PID.TID 0000.0001) tempImplVertAdv = /* Temp. implicit vert. advection on/off */
(PID.TID 0000.0001)                   F
(PID.TID 0000.0001)     ;
(PID.TID 0000.0001) tempForcing  =  /* Temperature forcing on/off flag */
(PID.TID 0000.0001)                   T
(PID.TID 0000.0001)     ;
(PID.TID 0000.0001) doThetaClimRelax = /* apply SST relaxation on/off flag */
(PID.TID 0000.0001)                   F
(PID.TID 0000.0001)     ;
(PID.TID 0000.0001) tempIsActiveTr = /* Temp. is a dynamically Active Tracer */
(PID.TID 0000.0001)                   T
(PID.TID 0000.0001)     ;
(PID.TID 0000.0001) saltStepping =  /* Salinity equation on/off flag */
(PID.TID 0000.0001)                   F
(PID.TID 0000.0001)     ;
(PID.TID 0000.0001) saltAdvection = /* Salinity advection on/off flag */
(PID.TID 0000.0001)                   F
(PID.TID 0000.0001)     ;
(PID.TID 0000.0001) saltImplVertAdv = /* Sali. implicit vert. advection on/off */
(PID.TID 0000.0001)                   F
(PID.TID 0000.0001)     ;
(PID.TID 0000.0001) saltForcing  =  /* Salinity forcing on/off flag */
(PID.TID 0000.0001)                   F
(PID.TID 0000.0001)     ;
(PID.TID 0000.0001) doSaltClimRelax = /* apply SSS relaxation on/off flag */
(PID.TID 0000.0001)                   F
(PID.TID 0000.0001)     ;
(PID.TID 0000.0001) saltIsActiveTr = /* Salt  is a dynamically Active Tracer */
(PID.TID 0000.0001)                   F
(PID.TID 0000.0001)     ;
(PID.TID 0000.0001)  readBinaryPrec = /* Precision used for reading binary files */
(PID.TID 0000.0001)                      64
(PID.TID 0000.0001)     ;
(PID.TID 0000.0001) writeBinaryPrec = /* Precision used for writing binary files */
(PID.TID 0000.0001)                      64
(PID.TID 0000.0001)     ;
(PID.TID 0000.0001)  globalFiles = /* write "global" (=not per tile) files */
(PID.TID 0000.0001)                   F
(PID.TID 0000.0001)     ;
(PID.TID 0000.0001)  useSingleCpuIO = /* only master MPI process does I/O */
(PID.TID 0000.0001)                   F
(PID.TID 0000.0001)     ;
(PID.TID 0000.0001)  useSingleCpuInput = /* only master process reads input */
(PID.TID 0000.0001)                   F
(PID.TID 0000.0001)     ;
(PID.TID 0000.0001) /* debLev[*]  : level of debug & auxiliary message printing */
(PID.TID 0000.0001) debLevZero =  0 ; /* level of disabled aux. msg printing */
(PID.TID 0000.0001)    debLevA =  1 ; /* level of minimum  aux. msg printing */
(PID.TID 0000.0001)    debLevB =  2 ; /* level of low aux. print (report read-file opening)*/
(PID.TID 0000.0001)    debLevC =  3 ; /* level of moderate debug prt (most pkgs debug msg) */
(PID.TID 0000.0001)    debLevD =  4 ; /* level of enhanced debug prt (add DEBUG_STATS prt) */
(PID.TID 0000.0001)    debLevE =  5 ; /* level of extensive debug printing */
(PID.TID 0000.0001) debugLevel =  /* select debug printing level */
(PID.TID 0000.0001)                       2
(PID.TID 0000.0001)     ;
(PID.TID 0000.0001) //
(PID.TID 0000.0001) // Elliptic solver(s) paramters ( PARM02 in namelist )
(PID.TID 0000.0001) //
(PID.TID 0000.0001) cg2dMaxIters =   /* Upper limit on 2d con. grad iterations  */
(PID.TID 0000.0001)                     200
(PID.TID 0000.0001)     ;
(PID.TID 0000.0001) cg2dChkResFreq =   /* 2d con. grad convergence test frequency */
(PID.TID 0000.0001)                       1
(PID.TID 0000.0001)     ;
(PID.TID 0000.0001) cg2dUseMinResSol= /* use cg2d last-iter(=0) / min-resid.(=1) solution */
(PID.TID 0000.0001)                       0
(PID.TID 0000.0001)     ;
(PID.TID 0000.0001) cg2dTargetResidual =   /* 2d con. grad target residual  */
(PID.TID 0000.0001)                 1.000000000000000E-07
(PID.TID 0000.0001)     ;
(PID.TID 0000.0001) cg2dTargetResWunit =   /* CG2d target residual [W units] */
(PID.TID 0000.0001)                 1.000000000000000E-17
(PID.TID 0000.0001)     ;
(PID.TID 0000.0001) cg2dPreCondFreq =   /* Freq. for updating cg2d preconditioner */
(PID.TID 0000.0001)                       1
(PID.TID 0000.0001)     ;
(PID.TID 0000.0001) useSRCGSolver =  /* use single reduction CG solver(s) */
(PID.TID 0000.0001)                   F
(PID.TID 0000.0001)     ;
(PID.TID 0000.0001) printResidualFreq = /* Freq. for printing CG residual */
(PID.TID 0000.0001)                       0
(PID.TID 0000.0001)     ;
(PID.TID 0000.0001) //
(PID.TID 0000.0001) // Time stepping paramters ( PARM03 in namelist )
(PID.TID 0000.0001) //
(PID.TID 0000.0001) deltaTMom =   /* Momentum equation timestep ( s ) */
(PID.TID 0000.0001)                 4.500000000000000E+02
(PID.TID 0000.0001)     ;
(PID.TID 0000.0001) deltaTFreeSurf = /* FreeSurface equation timestep ( s ) */
(PID.TID 0000.0001)                 4.500000000000000E+02
(PID.TID 0000.0001)     ;
(PID.TID 0000.0001) dTtracerLev =  /* Tracer equation timestep ( s ) */
(PID.TID 0000.0001)    20 @  4.500000000000000E+02              /* K =  1: 20 */
(PID.TID 0000.0001)     ;
(PID.TID 0000.0001) deltaTClock  =   /* Model clock timestep ( s ) */
(PID.TID 0000.0001)                 4.500000000000000E+02
(PID.TID 0000.0001)     ;
(PID.TID 0000.0001) cAdjFreq =   /* Convective adjustment interval ( s ) */
(PID.TID 0000.0001)                 0.000000000000000E+00
(PID.TID 0000.0001)     ;
(PID.TID 0000.0001) momForcingOutAB = /* =1: take Momentum Forcing out of Adams-Bash. stepping */
(PID.TID 0000.0001)                       0
(PID.TID 0000.0001)     ;
(PID.TID 0000.0001) tracForcingOutAB = /* =1: take T,S,pTr Forcing out of Adams-Bash. stepping */
(PID.TID 0000.0001)                       1
(PID.TID 0000.0001)     ;
(PID.TID 0000.0001) momDissip_In_AB = /* put Dissipation Tendency in Adams-Bash. stepping */
(PID.TID 0000.0001)                   T
(PID.TID 0000.0001)     ;
(PID.TID 0000.0001) doAB_onGtGs = /* apply AB on Tendencies (rather than on T,S)*/
(PID.TID 0000.0001)                   T
(PID.TID 0000.0001)     ;
(PID.TID 0000.0001) abEps =   /* Adams-Bashforth-2 stabilizing weight */
(PID.TID 0000.0001)                 1.000000000000000E-01
(PID.TID 0000.0001)     ;
(PID.TID 0000.0001) pickupStrictlyMatch= /* stop if pickup do not strictly match */
(PID.TID 0000.0001)                   T
(PID.TID 0000.0001)     ;
(PID.TID 0000.0001) nIter0   =   /* Run starting timestep number */
(PID.TID 0000.0001)                  276480
(PID.TID 0000.0001)     ;
(PID.TID 0000.0001) nTimeSteps = /* Number of timesteps */
(PID.TID 0000.0001)                      16
(PID.TID 0000.0001)     ;
(PID.TID 0000.0001) nEndIter =   /* Run ending timestep number */
(PID.TID 0000.0001)                  276496
(PID.TID 0000.0001)     ;
(PID.TID 0000.0001) baseTime =   /* Model base time ( s ) */
(PID.TID 0000.0001)                 0.000000000000000E+00
(PID.TID 0000.0001)     ;
(PID.TID 0000.0001) startTime =  /* Run start time ( s ) */
(PID.TID 0000.0001)                 1.244160000000000E+08
(PID.TID 0000.0001)     ;
(PID.TID 0000.0001) endTime  =   /* Integration ending time ( s ) */
(PID.TID 0000.0001)                 1.244232000000000E+08
(PID.TID 0000.0001)     ;
(PID.TID 0000.0001) pChkPtFreq = /* Permanent restart/pickup file interval ( s ) */
(PID.TID 0000.0001)                 3.110400000000000E+07
(PID.TID 0000.0001)     ;
(PID.TID 0000.0001) chkPtFreq  = /* Rolling restart/pickup file interval ( s ) */
(PID.TID 0000.0001)                 2.592000000000000E+06
(PID.TID 0000.0001)     ;
(PID.TID 0000.0001) pickup_write_mdsio =   /* Model IO flag. */
(PID.TID 0000.0001)                   T
(PID.TID 0000.0001)     ;
(PID.TID 0000.0001) pickup_read_mdsio =   /* Model IO flag. */
(PID.TID 0000.0001)                   T
(PID.TID 0000.0001)     ;
(PID.TID 0000.0001) pickup_write_mnc =   /* Model IO flag. */
(PID.TID 0000.0001)                   F
(PID.TID 0000.0001)     ;
(PID.TID 0000.0001) pickup_read_mnc =   /* Model IO flag. */
(PID.TID 0000.0001)                   F
(PID.TID 0000.0001)     ;
(PID.TID 0000.0001) pickup_write_immed =   /* Model IO flag. */
(PID.TID 0000.0001)                   F
(PID.TID 0000.0001)     ;
(PID.TID 0000.0001) writePickupAtEnd =   /* Model IO flag. */
(PID.TID 0000.0001)                   T
(PID.TID 0000.0001)     ;
(PID.TID 0000.0001) dumpFreq =   /* Model state write out interval ( s ). */
(PID.TID 0000.0001)                 2.592000000000000E+06
(PID.TID 0000.0001)     ;
(PID.TID 0000.0001) dumpInitAndLast= /* write out Initial & Last iter. model state */
(PID.TID 0000.0001)                   T
(PID.TID 0000.0001)     ;
(PID.TID 0000.0001) snapshot_mdsio =   /* Model IO flag. */
(PID.TID 0000.0001)                   T
(PID.TID 0000.0001)     ;
(PID.TID 0000.0001) snapshot_mnc =   /* Model IO flag. */
(PID.TID 0000.0001)                   F
(PID.TID 0000.0001)     ;
(PID.TID 0000.0001) monitorFreq =   /* Monitor output interval ( s ). */
(PID.TID 0000.0001)                 1.000000000000000E+00
(PID.TID 0000.0001)     ;
(PID.TID 0000.0001) monitorSelect = /* select group of variables to monitor */
(PID.TID 0000.0001)                       2
(PID.TID 0000.0001)     ;
(PID.TID 0000.0001) monitor_stdio =   /* Model IO flag. */
(PID.TID 0000.0001)                   T
(PID.TID 0000.0001)     ;
(PID.TID 0000.0001) monitor_mnc =   /* Model IO flag. */
(PID.TID 0000.0001)                   F
(PID.TID 0000.0001)     ;
(PID.TID 0000.0001) externForcingPeriod =   /* forcing period (s) */
(PID.TID 0000.0001)                 0.000000000000000E+00
(PID.TID 0000.0001)     ;
(PID.TID 0000.0001) externForcingCycle =   /* period of the cyle (s). */
(PID.TID 0000.0001)                 0.000000000000000E+00
(PID.TID 0000.0001)     ;
(PID.TID 0000.0001) tauThetaClimRelax =   /* relaxation time scale (s) */
(PID.TID 0000.0001)                 0.000000000000000E+00
(PID.TID 0000.0001)     ;
(PID.TID 0000.0001) tauSaltClimRelax =   /* relaxation time scale (s) */
(PID.TID 0000.0001)                 0.000000000000000E+00
(PID.TID 0000.0001)     ;
(PID.TID 0000.0001) latBandClimRelax =   /* max. Lat. where relaxation */
(PID.TID 0000.0001)                 1.800000000000000E+02
(PID.TID 0000.0001)     ;
(PID.TID 0000.0001) //
(PID.TID 0000.0001) // Gridding paramters ( PARM04 in namelist )
(PID.TID 0000.0001) //
(PID.TID 0000.0001) usingCartesianGrid = /* Cartesian coordinates flag ( True/False ) */
(PID.TID 0000.0001)                   F
(PID.TID 0000.0001)     ;
(PID.TID 0000.0001) usingCylindricalGrid = /* Cylindrical coordinates flag ( True/False ) */
(PID.TID 0000.0001)                   F
(PID.TID 0000.0001)     ;
(PID.TID 0000.0001) usingSphericalPolarGrid = /* Spherical coordinates flag ( True/False ) */
(PID.TID 0000.0001)                   F
(PID.TID 0000.0001)     ;
(PID.TID 0000.0001) usingCurvilinearGrid = /* Curvilinear coordinates flag ( True/False ) */
(PID.TID 0000.0001)                   T
(PID.TID 0000.0001)     ;
(PID.TID 0000.0001) selectSigmaCoord = /* Hybrid-Sigma Vert. Coordinate option */
(PID.TID 0000.0001)                       0
(PID.TID 0000.0001)     ;
(PID.TID 0000.0001) Ro_SeaLevel = /* r(1) ( units of r == Pa ) */
(PID.TID 0000.0001)                 1.000000000000000E+05
(PID.TID 0000.0001)     ;
(PID.TID 0000.0001) rSigmaBnd = /* r/sigma transition ( units of r == Pa ) */
(PID.TID 0000.0001)                 1.234567000000000E+05
(PID.TID 0000.0001)     ;
(PID.TID 0000.0001) rkSign =   /* index orientation relative to vertical coordinate */
(PID.TID 0000.0001)                -1.000000000000000E+00
(PID.TID 0000.0001)     ;
(PID.TID 0000.0001) gravitySign = /* gravity orientation relative to vertical coordinate */
(PID.TID 0000.0001)                 1.000000000000000E+00
(PID.TID 0000.0001)     ;
(PID.TID 0000.0001) mass2rUnit = /* convert mass per unit area [kg/m2] to r-units [Pa] */
(PID.TID 0000.0001)                 9.810000000000000E+00
(PID.TID 0000.0001)     ;
(PID.TID 0000.0001) rUnit2mass = /* convert r-units [Pa] to mass per unit area [kg/m2] */
(PID.TID 0000.0001)                 1.019367991845056E-01
(PID.TID 0000.0001)     ;
(PID.TID 0000.0001) drC =   /* C spacing ( units of r ) */
(PID.TID 0000.0001)                 2.500000000000000E+03,      /* K =  1 */
(PID.TID 0000.0001)    19 @  5.000000000000000E+03,             /* K =  2: 20 */
(PID.TID 0000.0001)                 2.500000000000000E+03       /* K = 21 */
(PID.TID 0000.0001)     ;
(PID.TID 0000.0001) drF =   /* W spacing ( units of r ) */
(PID.TID 0000.0001)    20 @  5.000000000000000E+03              /* K =  1: 20 */
(PID.TID 0000.0001)     ;
(PID.TID 0000.0001) radius_fromHorizGrid = /* sphere Radius of input horiz. grid */
(PID.TID 0000.0001)                 6.370000000000000E+06
(PID.TID 0000.0001)     ;
(PID.TID 0000.0001) rSphere =  /* Radius ( ignored - cartesian, m - spherical ) */
(PID.TID 0000.0001)                 6.370000000000000E+06
(PID.TID 0000.0001)     ;
(PID.TID 0000.0001) deepAtmosphere = /* Deep/Shallow Atmosphere flag (True/False) */
(PID.TID 0000.0001)                   F
(PID.TID 0000.0001)     ;
(PID.TID 0000.0001) xC =  /* xC(:,1,:,1) : P-point X coord ( deg. or m if cartesian) */
(PID.TID 0000.0001)                -4.439521994760536E+01,      /* I =  1 */
(PID.TID 0000.0001)                -4.295641272275883E+01,      /* I =  2 */
(PID.TID 0000.0001)                -4.122055553388957E+01,      /* I =  3 */
(PID.TID 0000.0001)      . . .
(PID.TID 0000.0001)                 8.070819219728060E+01,      /* I = 46 */
(PID.TID 0000.0001)                 8.439652466417766E+01,      /* I = 47 */
(PID.TID 0000.0001)                 8.812739148696656E+01,      /* I = 48 */
(PID.TID 0000.0001)                 9.187260851303344E+01,      /* I = 49 */
(PID.TID 0000.0001)                 9.560347533582234E+01,      /* I = 50 */
(PID.TID 0000.0001)                 9.929180780271940E+01,      /* I = 51 */
(PID.TID 0000.0001)      . . .
(PID.TID 0000.0001)                 1.321863035748696E+02,      /* I = 94 */
(PID.TID 0000.0001)                 1.337919453120370E+02,      /* I = 95 */
(PID.TID 0000.0001)                 1.350000000000000E+02,      /* I = 96 */
(PID.TID 0000.0001)                 1.356047800523947E+02,      /* I = 97 */
(PID.TID 0000.0001)                 1.358367907661329E+02,      /* I = 98 */
(PID.TID 0000.0001)                 1.359720382181193E+02,      /* I = 99 */
(PID.TID 0000.0001)      . . .
(PID.TID 0000.0001)                -1.336511021209287E+02,      /* I =142 */
(PID.TID 0000.0001)                -1.336469399409420E+02,      /* I =143 */
(PID.TID 0000.0001)                -1.336449032499283E+02,      /* I =144 */
(PID.TID 0000.0001)                -1.336449032499283E+02,      /* I =145 */
(PID.TID 0000.0001)                -1.336469399409420E+02,      /* I =146 */
(PID.TID 0000.0001)                -1.336511021209287E+02,      /* I =147 */
(PID.TID 0000.0001)      . . .
(PID.TID 0000.0001)                 1.378136964251304E+02,      /* I =190 */
(PID.TID 0000.0001)                 1.362080546879630E+02,      /* I =191 */
(PID.TID 0000.0001)                 1.350000000000000E+02       /* I =192 */
(PID.TID 0000.0001)     ;
(PID.TID 0000.0001) yC =  /* yC(1,:,1,:) : P-point Y coord ( deg. or m if cartesian) */
(PID.TID 0000.0001)                -3.497677942598243E+01,      /* J =  1 */
(PID.TID 0000.0001)                -3.374005967394886E+01,      /* J =  2 */
(PID.TID 0000.0001)                -3.220655175667454E+01,      /* J =  3 */
(PID.TID 0000.0001)                -3.045756348838641E+01,      /* J =  4 */
(PID.TID 0000.0001)                -2.853728129852918E+01,      /* J =  5 */
(PID.TID 0000.0001)                -2.647426640173173E+01,      /* J =  6 */
(PID.TID 0000.0001)                -2.428936657094636E+01,      /* J =  7 */
(PID.TID 0000.0001)                -2.199915808312262E+01,      /* J =  8 */
(PID.TID 0000.0001)                -1.961768597440146E+01,      /* J =  9 */
(PID.TID 0000.0001)                -1.715743888281371E+01,      /* J = 10 */
(PID.TID 0000.0001)                -1.462993396899330E+01,      /* J = 11 */
(PID.TID 0000.0001)                -1.204608340464756E+01,      /* J = 12 */
(PID.TID 0000.0001)                -9.416429130284818E+00,      /* J = 13 */
(PID.TID 0000.0001)                -6.751293662992216E+00,      /* J = 14 */
(PID.TID 0000.0001)                -4.060875511835959E+00,      /* J = 15 */
(PID.TID 0000.0001)                -1.355307764409121E+00,      /* J = 16 */
(PID.TID 0000.0001)                 1.355307764409121E+00,      /* J = 17 */
(PID.TID 0000.0001)                 4.060875511835959E+00,      /* J = 18 */
(PID.TID 0000.0001)                 6.751293662992216E+00,      /* J = 19 */
(PID.TID 0000.0001)                 9.416429130284818E+00,      /* J = 20 */
(PID.TID 0000.0001)                 1.204608340464756E+01,      /* J = 21 */
(PID.TID 0000.0001)                 1.462993396899330E+01,      /* J = 22 */
(PID.TID 0000.0001)                 1.715743888281371E+01,      /* J = 23 */
(PID.TID 0000.0001)                 1.961768597440146E+01,      /* J = 24 */
(PID.TID 0000.0001)                 2.199915808312262E+01,      /* J = 25 */
(PID.TID 0000.0001)                 2.428936657094636E+01,      /* J = 26 */
(PID.TID 0000.0001)                 2.647426640173173E+01,      /* J = 27 */
(PID.TID 0000.0001)                 2.853728129852918E+01,      /* J = 28 */
(PID.TID 0000.0001)                 3.045756348838641E+01,      /* J = 29 */
(PID.TID 0000.0001)                 3.220655175667454E+01,      /* J = 30 */
(PID.TID 0000.0001)                 3.374005967394886E+01,      /* J = 31 */
(PID.TID 0000.0001)                 3.497677942598243E+01       /* J = 32 */
(PID.TID 0000.0001)     ;
(PID.TID 0000.0001) rcoord = /* P-point R coordinate (  units of r ) */
(PID.TID 0000.0001)                 9.750000000000000E+04,      /* K =  1 */
(PID.TID 0000.0001)                 9.250000000000000E+04,      /* K =  2 */
(PID.TID 0000.0001)                 8.750000000000000E+04,      /* K =  3 */
(PID.TID 0000.0001)                 8.250000000000000E+04,      /* K =  4 */
(PID.TID 0000.0001)                 7.750000000000000E+04,      /* K =  5 */
(PID.TID 0000.0001)                 7.250000000000000E+04,      /* K =  6 */
(PID.TID 0000.0001)                 6.750000000000000E+04,      /* K =  7 */
(PID.TID 0000.0001)                 6.250000000000000E+04,      /* K =  8 */
(PID.TID 0000.0001)                 5.750000000000000E+04,      /* K =  9 */
(PID.TID 0000.0001)                 5.250000000000000E+04,      /* K = 10 */
(PID.TID 0000.0001)                 4.750000000000000E+04,      /* K = 11 */
(PID.TID 0000.0001)                 4.250000000000000E+04,      /* K = 12 */
(PID.TID 0000.0001)                 3.750000000000000E+04,      /* K = 13 */
(PID.TID 0000.0001)                 3.250000000000000E+04,      /* K = 14 */
(PID.TID 0000.0001)                 2.750000000000000E+04,      /* K = 15 */
(PID.TID 0000.0001)                 2.250000000000000E+04,      /* K = 16 */
(PID.TID 0000.0001)                 1.750000000000000E+04,      /* K = 17 */
(PID.TID 0000.0001)                 1.250000000000000E+04,      /* K = 18 */
(PID.TID 0000.0001)                 7.500000000000000E+03,      /* K = 19 */
(PID.TID 0000.0001)                 2.500000000000000E+03       /* K = 20 */
(PID.TID 0000.0001)     ;
(PID.TID 0000.0001) rF =   /* W-Interf. R coordinate (  units of r ) */
(PID.TID 0000.0001)                 1.000000000000000E+05,      /* K =  1 */
(PID.TID 0000.0001)                 9.500000000000000E+04,      /* K =  2 */
(PID.TID 0000.0001)                 9.000000000000000E+04,      /* K =  3 */
(PID.TID 0000.0001)                 8.500000000000000E+04,      /* K =  4 */
(PID.TID 0000.0001)                 8.000000000000000E+04,      /* K =  5 */
(PID.TID 0000.0001)                 7.500000000000000E+04,      /* K =  6 */
(PID.TID 0000.0001)                 7.000000000000000E+04,      /* K =  7 */
(PID.TID 0000.0001)                 6.500000000000000E+04,      /* K =  8 */
(PID.TID 0000.0001)                 6.000000000000000E+04,      /* K =  9 */
(PID.TID 0000.0001)                 5.500000000000000E+04,      /* K = 10 */
(PID.TID 0000.0001)                 5.000000000000000E+04,      /* K = 11 */
(PID.TID 0000.0001)                 4.500000000000000E+04,      /* K = 12 */
(PID.TID 0000.0001)                 4.000000000000000E+04,      /* K = 13 */
(PID.TID 0000.0001)                 3.500000000000000E+04,      /* K = 14 */
(PID.TID 0000.0001)                 3.000000000000000E+04,      /* K = 15 */
(PID.TID 0000.0001)                 2.500000000000000E+04,      /* K = 16 */
(PID.TID 0000.0001)                 2.000000000000000E+04,      /* K = 17 */
(PID.TID 0000.0001)                 1.500000000000000E+04,      /* K = 18 */
(PID.TID 0000.0001)                 1.000000000000000E+04,      /* K = 19 */
(PID.TID 0000.0001)                 5.000000000000000E+03,      /* K = 20 */
(PID.TID 0000.0001)                 0.000000000000000E+00       /* K = 21 */
(PID.TID 0000.0001)     ;
(PID.TID 0000.0001) deepFacC = /* deep-model grid factor @ cell-Center (-) */
(PID.TID 0000.0001)    20 @  1.000000000000000E+00              /* K =  1: 20 */
(PID.TID 0000.0001)     ;
(PID.TID 0000.0001) deepFacF = /* deep-model grid factor @ W-Interface (-) */
(PID.TID 0000.0001)    21 @  1.000000000000000E+00              /* K =  1: 21 */
(PID.TID 0000.0001)     ;
(PID.TID 0000.0001) rVel2wUnit = /* convert units: rVel -> wSpeed (=1 if z-coord)*/
(PID.TID 0000.0001)                 8.632031454783748E-02,      /* K =  1 */
(PID.TID 0000.0001)                 8.958707285174485E-02,      /* K =  2 */
(PID.TID 0000.0001)                 9.322489597668063E-02,      /* K =  3 */
(PID.TID 0000.0001)                 9.724115789139974E-02,      /* K =  4 */
(PID.TID 0000.0001)                 1.016816995635013E-01,      /* K =  5 */
(PID.TID 0000.0001)                 1.066224882385748E-01,      /* K =  6 */
(PID.TID 0000.0001)                 1.121783017604942E-01,      /* K =  7 */
(PID.TID 0000.0001)                 1.184752359236691E-01,      /* K =  8 */
(PID.TID 0000.0001)                 1.256778876034342E-01,      /* K =  9 */
(PID.TID 0000.0001)                 1.340056381340221E-01,      /* K = 10 */
(PID.TID 0000.0001)                 1.437581146849567E-01,      /* K = 11 */
(PID.TID 0000.0001)                 1.553565773170242E-01,      /* K = 12 */
(PID.TID 0000.0001)                 1.695269138916702E-01,      /* K = 13 */
(PID.TID 0000.0001)                 1.875447762881537E-01,      /* K = 14 */
(PID.TID 0000.0001)                 2.114822211098226E-01,      /* K = 15 */
(PID.TID 0000.0001)                 2.452264254170199E-01,      /* K = 16 */
(PID.TID 0000.0001)                 2.975234870372538E-01,      /* K = 17 */
(PID.TID 0000.0001)                 3.921511262428121E-01,      /* K = 18 */
(PID.TID 0000.0001)                 5.918087228289601E-01,      /* K = 19 */
(PID.TID 0000.0001)                 1.233738318605267E+00,      /* K = 20 */
(PID.TID 0000.0001)                 1.000000000000000E+00       /* K = 21 */
(PID.TID 0000.0001)     ;
(PID.TID 0000.0001) wUnit2rVel = /* convert units: wSpeed -> rVel (=1 if z-coord)*/
(PID.TID 0000.0001)                 1.158475852686814E+01,      /* K =  1 */
(PID.TID 0000.0001)                 1.116232474360304E+01,      /* K =  2 */
(PID.TID 0000.0001)                 1.072674835968861E+01,      /* K =  3 */
(PID.TID 0000.0001)                 1.028371135930748E+01,      /* K =  4 */
(PID.TID 0000.0001)                 9.834611383295076E+00,      /* K =  5 */
(PID.TID 0000.0001)                 9.378884478501709E+00,      /* K =  6 */
(PID.TID 0000.0001)                 8.914379913996610E+00,      /* K =  7 */
(PID.TID 0000.0001)                 8.440582474503593E+00,      /* K =  8 */
(PID.TID 0000.0001)                 7.956849204495017E+00,      /* K =  9 */
(PID.TID 0000.0001)                 7.462372583158610E+00,      /* K = 10 */
(PID.TID 0000.0001)                 6.956129065767744E+00,      /* K = 11 */
(PID.TID 0000.0001)                 6.436805040827959E+00,      /* K = 12 */
(PID.TID 0000.0001)                 5.898768384582358E+00,      /* K = 13 */
(PID.TID 0000.0001)                 5.332060000773081E+00,      /* K = 14 */
(PID.TID 0000.0001)                 4.728529872403320E+00,      /* K = 15 */
(PID.TID 0000.0001)                 4.077863950834212E+00,      /* K = 16 */
(PID.TID 0000.0001)                 3.361079187253499E+00,      /* K = 17 */
(PID.TID 0000.0001)                 2.550037302151773E+00,      /* K = 18 */
(PID.TID 0000.0001)                 1.689735148241490E+00,      /* K = 19 */
(PID.TID 0000.0001)                 8.105446551506101E-01,      /* K = 20 */
(PID.TID 0000.0001)                 1.000000000000000E+00       /* K = 21 */
(PID.TID 0000.0001)     ;
(PID.TID 0000.0001) dBdrRef = /* Vertical grad. of reference buoyancy [(m/s/r)^2] */
(PID.TID 0000.0001)                 0.000000000000000E+00,      /* K =  1 */
(PID.TID 0000.0001)                 1.785624045681920E-07,      /* K =  2 */
(PID.TID 0000.0001)                 2.474616971131904E-07,      /* K =  3 */
(PID.TID 0000.0001)                 2.577789237040079E-07,      /* K =  4 */
(PID.TID 0000.0001)                 2.691929498445455E-07,      /* K =  5 */
(PID.TID 0000.0001)                 2.819006866136815E-07,      /* K =  6 */
(PID.TID 0000.0001)                 3.701885945018193E-07,      /* K =  7 */
(PID.TID 0000.0001)                 3.903284211594409E-07,      /* K =  8 */
(PID.TID 0000.0001)                 4.959801422021664E-07,      /* K =  9 */
(PID.TID 0000.0001)                 5.278194764615134E-07,      /* K = 10 */
(PID.TID 0000.0001)                 6.592299523493489E-07,      /* K = 11 */
(PID.TID 0000.0001)                 7.108417798077609E-07,      /* K = 12 */
(PID.TID 0000.0001)                 1.325764956810394E-06,      /* K = 13 */
(PID.TID 0000.0001)                 2.674466482785901E-06,      /* K = 14 */
(PID.TID 0000.0001)                 5.294955460934289E-06,      /* K = 15 */
(PID.TID 0000.0001)                 1.098719325200351E-05,      /* K = 16 */
(PID.TID 0000.0001)                 2.616472004653700E-05,      /* K = 17 */
(PID.TID 0000.0001)                 7.337796900442801E-05,      /* K = 18 */
(PID.TID 0000.0001)                 1.713079844497272E-04,      /* K = 19 */
(PID.TID 0000.0001)                 7.979759252990869E-04       /* K = 20 */
(PID.TID 0000.0001)     ;
(PID.TID 0000.0001) rotateGrid = /* use rotated grid ( True/False ) */
(PID.TID 0000.0001)                   F
(PID.TID 0000.0001)     ;
(PID.TID 0000.0001) phiEuler = /* Euler angle, rotation about original z-coordinate [rad] */
(PID.TID 0000.0001)                 0.000000000000000E+00
(PID.TID 0000.0001)     ;
(PID.TID 0000.0001) thetaEuler = /* Euler angle, rotation about new x-coordinate [rad] */
(PID.TID 0000.0001)                 0.000000000000000E+00
(PID.TID 0000.0001)     ;
(PID.TID 0000.0001) psiEuler = /* Euler angle, rotation about new z-coordinate [rad] */
(PID.TID 0000.0001)                 0.000000000000000E+00
(PID.TID 0000.0001)     ;
(PID.TID 0000.0001) dxF =  /* dxF(:,1,:,1) ( units: m ) */
(PID.TID 0000.0001)                 1.202082051331828E+05,      /* I =  1 */
(PID.TID 0000.0001)                 1.563594089971120E+05,      /* I =  2 */
(PID.TID 0000.0001)                 1.835530058121492E+05,      /* I =  3 */
(PID.TID 0000.0001)      . . .
(PID.TID 0000.0001)                 2.978501920522794E+05,      /* I = 46 */
(PID.TID 0000.0001)                 3.000967749619962E+05,      /* I = 47 */
(PID.TID 0000.0001)                 3.012190981969055E+05,      /* I = 48 */
(PID.TID 0000.0001)                 3.012190981969055E+05,      /* I = 49 */
(PID.TID 0000.0001)                 3.000967749619962E+05,      /* I = 50 */
(PID.TID 0000.0001)                 2.978501920522794E+05,      /* I = 51 */
(PID.TID 0000.0001)      . . .
(PID.TID 0000.0001)                 1.835530058121492E+05,      /* I = 94 */
(PID.TID 0000.0001)                 1.563594089971120E+05,      /* I = 95 */
(PID.TID 0000.0001)                 1.202082051331828E+05,      /* I = 96 */
(PID.TID 0000.0001)                 1.202082051331828E+05,      /* I = 97 */
(PID.TID 0000.0001)                 1.563594089971120E+05,      /* I = 98 */
(PID.TID 0000.0001)                 1.835530058121492E+05,      /* I = 99 */
(PID.TID 0000.0001)      . . .
(PID.TID 0000.0001)                 2.978501920522794E+05,      /* I =142 */
(PID.TID 0000.0001)                 3.000967749619962E+05,      /* I =143 */
(PID.TID 0000.0001)                 3.012190981969055E+05,      /* I =144 */
(PID.TID 0000.0001)                 3.012190981969055E+05,      /* I =145 */
(PID.TID 0000.0001)                 3.000967749619962E+05,      /* I =146 */
(PID.TID 0000.0001)                 2.978501920522794E+05,      /* I =147 */
(PID.TID 0000.0001)      . . .
(PID.TID 0000.0001)                 1.835530058121492E+05,      /* I =190 */
(PID.TID 0000.0001)                 1.563594089971120E+05,      /* I =191 */
(PID.TID 0000.0001)                 1.202082051331828E+05       /* I =192 */
(PID.TID 0000.0001)     ;
(PID.TID 0000.0001) dxF =  /* dxF(1,:,1,:) ( units: m ) */
(PID.TID 0000.0001)                 1.202082051331828E+05,      /* J =  1 */
(PID.TID 0000.0001)                 1.572908084538706E+05,      /* J =  2 */
(PID.TID 0000.0001)                 1.840412227747703E+05,      /* J =  3 */
(PID.TID 0000.0001)                 2.048868197919576E+05,      /* J =  4 */
(PID.TID 0000.0001)                 2.220405216043041E+05,      /* J =  5 */
(PID.TID 0000.0001)                 2.365892017348392E+05,      /* J =  6 */
(PID.TID 0000.0001)                 2.491250781852558E+05,      /* J =  7 */
(PID.TID 0000.0001)                 2.599949918261881E+05,      /* J =  8 */
(PID.TID 0000.0001)                 2.694110134598581E+05,      /* J =  9 */
(PID.TID 0000.0001)                 2.775055554645015E+05,      /* J = 10 */
(PID.TID 0000.0001)                 2.843615645344775E+05,      /* J = 11 */
(PID.TID 0000.0001)                 2.900303768613599E+05,      /* J = 12 */
(PID.TID 0000.0001)                 2.945429307892709E+05,      /* J = 13 */
(PID.TID 0000.0001)                 2.979171143158405E+05,      /* J = 14 */
(PID.TID 0000.0001)                 3.001626787528886E+05,      /* J = 15 */
(PID.TID 0000.0001)     2 @  3.012844832048790E+05,             /* J = 16: 17 */
(PID.TID 0000.0001)                 3.001626787528886E+05,      /* J = 18 */
(PID.TID 0000.0001)                 2.979171143158405E+05,      /* J = 19 */
(PID.TID 0000.0001)                 2.945429307892709E+05,      /* J = 20 */
(PID.TID 0000.0001)                 2.900303768613599E+05,      /* J = 21 */
(PID.TID 0000.0001)                 2.843615645344775E+05,      /* J = 22 */
(PID.TID 0000.0001)                 2.775055554645015E+05,      /* J = 23 */
(PID.TID 0000.0001)                 2.694110134598581E+05,      /* J = 24 */
(PID.TID 0000.0001)                 2.599949918261881E+05,      /* J = 25 */
(PID.TID 0000.0001)                 2.491250781852558E+05,      /* J = 26 */
(PID.TID 0000.0001)                 2.365892017348392E+05,      /* J = 27 */
(PID.TID 0000.0001)                 2.220405216043041E+05,      /* J = 28 */
(PID.TID 0000.0001)                 2.048868197919576E+05,      /* J = 29 */
(PID.TID 0000.0001)                 1.840412227747703E+05,      /* J = 30 */
(PID.TID 0000.0001)                 1.572908084538706E+05,      /* J = 31 */
(PID.TID 0000.0001)                 1.202082051331828E+05       /* J = 32 */
(PID.TID 0000.0001)     ;
(PID.TID 0000.0001) dyF =  /* dyF(:,1,:,1) ( units: m ) */
(PID.TID 0000.0001)                 1.202082051331828E+05,      /* I =  1 */
(PID.TID 0000.0001)                 1.572908084538706E+05,      /* I =  2 */
(PID.TID 0000.0001)                 1.840412227747703E+05,      /* I =  3 */
(PID.TID 0000.0001)      . . .
(PID.TID 0000.0001)                 2.979171143158405E+05,      /* I = 46 */
(PID.TID 0000.0001)                 3.001626787528886E+05,      /* I = 47 */
(PID.TID 0000.0001)                 3.012844832048790E+05,      /* I = 48 */
(PID.TID 0000.0001)                 3.012844832048790E+05,      /* I = 49 */
(PID.TID 0000.0001)                 3.001626787528886E+05,      /* I = 50 */
(PID.TID 0000.0001)                 2.979171143158405E+05,      /* I = 51 */
(PID.TID 0000.0001)      . . .
(PID.TID 0000.0001)                 1.840412227747703E+05,      /* I = 94 */
(PID.TID 0000.0001)                 1.572908084538706E+05,      /* I = 95 */
(PID.TID 0000.0001)                 1.202082051331828E+05,      /* I = 96 */
(PID.TID 0000.0001)                 1.202082051331828E+05,      /* I = 97 */
(PID.TID 0000.0001)                 1.572908084538706E+05,      /* I = 98 */
(PID.TID 0000.0001)                 1.840412227747703E+05,      /* I = 99 */
(PID.TID 0000.0001)      . . .
(PID.TID 0000.0001)                 2.979171143158405E+05,      /* I =142 */
(PID.TID 0000.0001)                 3.001626787528886E+05,      /* I =143 */
(PID.TID 0000.0001)                 3.012844832048790E+05,      /* I =144 */
(PID.TID 0000.0001)                 3.012844832048790E+05,      /* I =145 */
(PID.TID 0000.0001)                 3.001626787528886E+05,      /* I =146 */
(PID.TID 0000.0001)                 2.979171143158405E+05,      /* I =147 */
(PID.TID 0000.0001)      . . .
(PID.TID 0000.0001)                 1.840412227747703E+05,      /* I =190 */
(PID.TID 0000.0001)                 1.572908084538706E+05,      /* I =191 */
(PID.TID 0000.0001)                 1.202082051331828E+05       /* I =192 */
(PID.TID 0000.0001)     ;
(PID.TID 0000.0001) dyF =  /* dyF(1,:,1,:) ( units: m ) */
(PID.TID 0000.0001)                 1.202082051331828E+05,      /* J =  1 */
(PID.TID 0000.0001)                 1.563594089971120E+05,      /* J =  2 */
(PID.TID 0000.0001)                 1.835530058121492E+05,      /* J =  3 */
(PID.TID 0000.0001)                 2.045883481718707E+05,      /* J =  4 */
(PID.TID 0000.0001)                 2.218350349844185E+05,      /* J =  5 */
(PID.TID 0000.0001)                 2.364352994647058E+05,      /* J =  6 */
(PID.TID 0000.0001)                 2.490022710862746E+05,      /* J =  7 */
(PID.TID 0000.0001)                 2.598919724358304E+05,      /* J =  8 */
(PID.TID 0000.0001)                 2.693210245495156E+05,      /* J =  9 */
(PID.TID 0000.0001)                 2.774243179696503E+05,      /* J = 10 */
(PID.TID 0000.0001)                 2.842862532064524E+05,      /* J = 11 */
(PID.TID 0000.0001)                 2.899590699694043E+05,      /* J = 12 */
(PID.TID 0000.0001)                 2.944742915095688E+05,      /* J = 13 */
(PID.TID 0000.0001)                 2.978501920522794E+05,      /* J = 14 */
(PID.TID 0000.0001)                 3.000967749619962E+05,      /* J = 15 */
(PID.TID 0000.0001)     2 @  3.012190981969055E+05,             /* J = 16: 17 */
(PID.TID 0000.0001)                 3.000967749619962E+05,      /* J = 18 */
(PID.TID 0000.0001)                 2.978501920522794E+05,      /* J = 19 */
(PID.TID 0000.0001)                 2.944742915095688E+05,      /* J = 20 */
(PID.TID 0000.0001)                 2.899590699694043E+05,      /* J = 21 */
(PID.TID 0000.0001)                 2.842862532064524E+05,      /* J = 22 */
(PID.TID 0000.0001)                 2.774243179696503E+05,      /* J = 23 */
(PID.TID 0000.0001)                 2.693210245495156E+05,      /* J = 24 */
(PID.TID 0000.0001)                 2.598919724358304E+05,      /* J = 25 */
(PID.TID 0000.0001)                 2.490022710862746E+05,      /* J = 26 */
(PID.TID 0000.0001)                 2.364352994647058E+05,      /* J = 27 */
(PID.TID 0000.0001)                 2.218350349844185E+05,      /* J = 28 */
(PID.TID 0000.0001)                 2.045883481718707E+05,      /* J = 29 */
(PID.TID 0000.0001)                 1.835530058121492E+05,      /* J = 30 */
(PID.TID 0000.0001)                 1.563594089971120E+05,      /* J = 31 */
(PID.TID 0000.0001)                 1.202082051331828E+05       /* J = 32 */
(PID.TID 0000.0001)     ;
(PID.TID 0000.0001) dxG =  /* dxG(:,1,:,1) ( units: m ) */
(PID.TID 0000.0001)                 1.009837800879055E+05,      /* I =  1 */
(PID.TID 0000.0001)                 1.534505834330338E+05,      /* I =  2 */
(PID.TID 0000.0001)                 1.823321598773926E+05,      /* I =  3 */
(PID.TID 0000.0001)      . . .
(PID.TID 0000.0001)                 2.977867909042096E+05,      /* I = 46 */
(PID.TID 0000.0001)                 3.000380090330854E+05,      /* I = 47 */
(PID.TID 0000.0001)                 3.011625828699101E+05,      /* I = 48 */
(PID.TID 0000.0001)                 3.011625828699101E+05,      /* I = 49 */
(PID.TID 0000.0001)                 3.000380090330854E+05,      /* I = 50 */
(PID.TID 0000.0001)                 2.977867909042096E+05,      /* I = 51 */
(PID.TID 0000.0001)      . . .
(PID.TID 0000.0001)                 1.823321598773926E+05,      /* I = 94 */
(PID.TID 0000.0001)                 1.534505834330338E+05,      /* I = 95 */
(PID.TID 0000.0001)                 1.009837800879055E+05,      /* I = 96 */
(PID.TID 0000.0001)                 1.009837800879055E+05,      /* I = 97 */
(PID.TID 0000.0001)                 1.534505834330338E+05,      /* I = 98 */
(PID.TID 0000.0001)                 1.823321598773926E+05,      /* I = 99 */
(PID.TID 0000.0001)      . . .
(PID.TID 0000.0001)                 2.977867909042096E+05,      /* I =142 */
(PID.TID 0000.0001)                 3.000380090330854E+05,      /* I =143 */
(PID.TID 0000.0001)                 3.011625828699101E+05,      /* I =144 */
(PID.TID 0000.0001)                 3.011625828699101E+05,      /* I =145 */
(PID.TID 0000.0001)                 3.000380090330854E+05,      /* I =146 */
(PID.TID 0000.0001)                 2.977867909042096E+05,      /* I =147 */
(PID.TID 0000.0001)      . . .
(PID.TID 0000.0001)                 1.823321598773926E+05,      /* I =190 */
(PID.TID 0000.0001)                 1.534505834330338E+05,      /* I =191 */
(PID.TID 0000.0001)                 1.009837800879055E+05       /* I =192 */
(PID.TID 0000.0001)     ;
(PID.TID 0000.0001) dxG =  /* dxG(1,:,1,:) ( units: m ) */
(PID.TID 0000.0001)                 1.009837800879055E+05,      /* J =  1 */
(PID.TID 0000.0001)                 1.403701524205398E+05,      /* J =  2 */
(PID.TID 0000.0001)                 1.716197227386011E+05,      /* J =  3 */
(PID.TID 0000.0001)                 1.950254041626018E+05,      /* J =  4 */
(PID.TID 0000.0001)                 2.138410773065497E+05,      /* J =  5 */
(PID.TID 0000.0001)                 2.295958105911512E+05,      /* J =  6 */
(PID.TID 0000.0001)                 2.430829951739083E+05,      /* J =  7 */
(PID.TID 0000.0001)                 2.547526806712889E+05,      /* J =  8 */
(PID.TID 0000.0001)                 2.648750305193301E+05,      /* J =  9 */
(PID.TID 0000.0001)                 2.736173771018112E+05,      /* J = 10 */
(PID.TID 0000.0001)                 2.810845823202647E+05,      /* J = 11 */
(PID.TID 0000.0001)                 2.873420591008078E+05,      /* J = 12 */
(PID.TID 0000.0001)                 2.924298293668651E+05,      /* J = 13 */
(PID.TID 0000.0001)                 2.963715635865306E+05,      /* J = 14 */
(PID.TID 0000.0001)                 2.991805843171258E+05,      /* J = 15 */
(PID.TID 0000.0001)                 3.008638765647886E+05,      /* J = 16 */
(PID.TID 0000.0001)                 3.014246674484008E+05,      /* J = 17 */
(PID.TID 0000.0001)                 3.008638765647886E+05,      /* J = 18 */
(PID.TID 0000.0001)                 2.991805843171258E+05,      /* J = 19 */
(PID.TID 0000.0001)                 2.963715635865306E+05,      /* J = 20 */
(PID.TID 0000.0001)                 2.924298293668651E+05,      /* J = 21 */
(PID.TID 0000.0001)                 2.873420591008078E+05,      /* J = 22 */
(PID.TID 0000.0001)                 2.810845823202647E+05,      /* J = 23 */
(PID.TID 0000.0001)                 2.736173771018112E+05,      /* J = 24 */
(PID.TID 0000.0001)                 2.648750305193301E+05,      /* J = 25 */
(PID.TID 0000.0001)                 2.547526806712889E+05,      /* J = 26 */
(PID.TID 0000.0001)                 2.430829951739083E+05,      /* J = 27 */
(PID.TID 0000.0001)                 2.295958105911512E+05,      /* J = 28 */
(PID.TID 0000.0001)                 2.138410773065497E+05,      /* J = 29 */
(PID.TID 0000.0001)                 1.950254041626018E+05,      /* J = 30 */
(PID.TID 0000.0001)                 1.716197227386011E+05,      /* J = 31 */
(PID.TID 0000.0001)                 1.403701524205398E+05       /* J = 32 */
(PID.TID 0000.0001)     ;
(PID.TID 0000.0001) dyG =  /* dyG(:,1,:,1) ( units: m ) */
(PID.TID 0000.0001)                 1.009837800879055E+05,      /* I =  1 */
(PID.TID 0000.0001)                 1.403701524205398E+05,      /* I =  2 */
(PID.TID 0000.0001)                 1.716197227386011E+05,      /* I =  3 */
(PID.TID 0000.0001)      . . .
(PID.TID 0000.0001)                 2.963715635865306E+05,      /* I = 46 */
(PID.TID 0000.0001)                 2.991805843171258E+05,      /* I = 47 */
(PID.TID 0000.0001)                 3.008638765647886E+05,      /* I = 48 */
(PID.TID 0000.0001)                 3.014246674484008E+05,      /* I = 49 */
(PID.TID 0000.0001)                 3.008638765647886E+05,      /* I = 50 */
(PID.TID 0000.0001)                 2.991805843171258E+05,      /* I = 51 */
(PID.TID 0000.0001)      . . .
(PID.TID 0000.0001)                 1.950254041626018E+05,      /* I = 94 */
(PID.TID 0000.0001)                 1.716197227386011E+05,      /* I = 95 */
(PID.TID 0000.0001)                 1.403701524205398E+05,      /* I = 96 */
(PID.TID 0000.0001)                 1.009837800879055E+05,      /* I = 97 */
(PID.TID 0000.0001)                 1.403701524205398E+05,      /* I = 98 */
(PID.TID 0000.0001)                 1.716197227386011E+05,      /* I = 99 */
(PID.TID 0000.0001)      . . .
(PID.TID 0000.0001)                 2.963715635865306E+05,      /* I =142 */
(PID.TID 0000.0001)                 2.991805843171258E+05,      /* I =143 */
(PID.TID 0000.0001)                 3.008638765647886E+05,      /* I =144 */
(PID.TID 0000.0001)                 3.014246674484008E+05,      /* I =145 */
(PID.TID 0000.0001)                 3.008638765647886E+05,      /* I =146 */
(PID.TID 0000.0001)                 2.991805843171258E+05,      /* I =147 */
(PID.TID 0000.0001)      . . .
(PID.TID 0000.0001)                 1.950254041626018E+05,      /* I =190 */
(PID.TID 0000.0001)                 1.716197227386011E+05,      /* I =191 */
(PID.TID 0000.0001)                 1.403701524205398E+05       /* I =192 */
(PID.TID 0000.0001)     ;
(PID.TID 0000.0001) dyG =  /* dyG(1,:,1,:) ( units: m ) */
(PID.TID 0000.0001)                 1.009837800879055E+05,      /* J =  1 */
(PID.TID 0000.0001)                 1.534505834330338E+05,      /* J =  2 */
(PID.TID 0000.0001)                 1.823321598773926E+05,      /* J =  3 */
(PID.TID 0000.0001)                 2.038999045536999E+05,      /* J =  4 */
(PID.TID 0000.0001)                 2.213884732245467E+05,      /* J =  5 */
(PID.TID 0000.0001)                 2.361211699596122E+05,      /* J =  6 */
(PID.TID 0000.0001)                 2.487693460283865E+05,      /* J =  7 */
(PID.TID 0000.0001)                 2.597126963772147E+05,      /* J =  8 */
(PID.TID 0000.0001)                 2.691790288994575E+05,      /* J =  9 */
(PID.TID 0000.0001)                 2.773091043277394E+05,      /* J = 10 */
(PID.TID 0000.0001)                 2.841906470085516E+05,      /* J = 11 */
(PID.TID 0000.0001)                 2.898778860929753E+05,      /* J = 12 */
(PID.TID 0000.0001)                 2.944035815526416E+05,      /* J = 13 */
(PID.TID 0000.0001)                 2.977867909042096E+05,      /* J = 14 */
(PID.TID 0000.0001)                 3.000380090330854E+05,      /* J = 15 */
(PID.TID 0000.0001)     2 @  3.011625828699101E+05,             /* J = 16: 17 */
(PID.TID 0000.0001)                 3.000380090330854E+05,      /* J = 18 */
(PID.TID 0000.0001)                 2.977867909042096E+05,      /* J = 19 */
(PID.TID 0000.0001)                 2.944035815526416E+05,      /* J = 20 */
(PID.TID 0000.0001)                 2.898778860929753E+05,      /* J = 21 */
(PID.TID 0000.0001)                 2.841906470085516E+05,      /* J = 22 */
(PID.TID 0000.0001)                 2.773091043277394E+05,      /* J = 23 */
(PID.TID 0000.0001)                 2.691790288994575E+05,      /* J = 24 */
(PID.TID 0000.0001)                 2.597126963772147E+05,      /* J = 25 */
(PID.TID 0000.0001)                 2.487693460283865E+05,      /* J = 26 */
(PID.TID 0000.0001)                 2.361211699596122E+05,      /* J = 27 */
(PID.TID 0000.0001)                 2.213884732245467E+05,      /* J = 28 */
(PID.TID 0000.0001)                 2.038999045536999E+05,      /* J = 29 */
(PID.TID 0000.0001)                 1.823321598773926E+05,      /* J = 30 */
(PID.TID 0000.0001)                 1.534505834330338E+05,      /* J = 31 */
(PID.TID 0000.0001)                 1.009837800879055E+05       /* J = 32 */
(PID.TID 0000.0001)     ;
(PID.TID 0000.0001) dxC =  /* dxC(:,1,:,1) ( units: m ) */
(PID.TID 0000.0001)                 1.114203141013064E+05,      /* I =  1 */
(PID.TID 0000.0001)                 1.391343389937106E+05,      /* I =  2 */
(PID.TID 0000.0001)                 1.709574999026266E+05,      /* I =  3 */
(PID.TID 0000.0001)      . . .
(PID.TID 0000.0001)                 2.963038832565530E+05,      /* I = 46 */
(PID.TID 0000.0001)                 2.991142470004740E+05,      /* I = 47 */
(PID.TID 0000.0001)                 3.007982711627968E+05,      /* I = 48 */
(PID.TID 0000.0001)                 3.013593857228136E+05,      /* I = 49 */
(PID.TID 0000.0001)                 3.007982711627968E+05,      /* I = 50 */
(PID.TID 0000.0001)                 2.991142470004740E+05,      /* I = 51 */
(PID.TID 0000.0001)      . . .
(PID.TID 0000.0001)                 1.946503699269892E+05,      /* I = 94 */
(PID.TID 0000.0001)                 1.709574999026266E+05,      /* I = 95 */
(PID.TID 0000.0001)                 1.391343389937106E+05,      /* I = 96 */
(PID.TID 0000.0001)                 1.114203141013064E+05,      /* I = 97 */
(PID.TID 0000.0001)                 1.391343389937106E+05,      /* I = 98 */
(PID.TID 0000.0001)                 1.709574999026266E+05,      /* I = 99 */
(PID.TID 0000.0001)      . . .
(PID.TID 0000.0001)                 2.963038832565530E+05,      /* I =142 */
(PID.TID 0000.0001)                 2.991142470004740E+05,      /* I =143 */
(PID.TID 0000.0001)                 3.007982711627968E+05,      /* I =144 */
(PID.TID 0000.0001)                 3.013593857228136E+05,      /* I =145 */
(PID.TID 0000.0001)                 3.007982711627968E+05,      /* I =146 */
(PID.TID 0000.0001)                 2.991142470004740E+05,      /* I =147 */
(PID.TID 0000.0001)      . . .
(PID.TID 0000.0001)                 1.946503699269892E+05,      /* I =190 */
(PID.TID 0000.0001)                 1.709574999026266E+05,      /* I =191 */
(PID.TID 0000.0001)                 1.391343389937106E+05       /* I =192 */
(PID.TID 0000.0001)     ;
(PID.TID 0000.0001) dxC =  /* dxC(1,:,1,:) ( units: m ) */
(PID.TID 0000.0001)                 1.114203141013064E+05,      /* J =  1 */
(PID.TID 0000.0001)                 1.549545757850771E+05,      /* J =  2 */
(PID.TID 0000.0001)                 1.829777599966776E+05,      /* J =  3 */
(PID.TID 0000.0001)                 2.042717761866506E+05,      /* J =  4 */
(PID.TID 0000.0001)                 2.216367828252819E+05,      /* J =  5 */
(PID.TID 0000.0001)                 2.363029564123586E+05,      /* J =  6 */
(PID.TID 0000.0001)                 2.489113743322025E+05,      /* J =  7 */
(PID.TID 0000.0001)                 2.598293319150326E+05,      /* J =  8 */
(PID.TID 0000.0001)                 2.692787333338535E+05,      /* J =  9 */
(PID.TID 0000.0001)                 2.773972106720365E+05,      /* J = 10 */
(PID.TID 0000.0001)                 2.842706922224557E+05,      /* J = 11 */
(PID.TID 0000.0001)                 2.899523122489403E+05,      /* J = 12 */
(PID.TID 0000.0001)                 2.944741346384699E+05,      /* J = 13 */
(PID.TID 0000.0001)                 2.978547649292580E+05,      /* J = 14 */
(PID.TID 0000.0001)                 3.001044073506459E+05,      /* J = 15 */
(PID.TID 0000.0001)     2 @  3.012281885409289E+05,             /* J = 16: 17 */
(PID.TID 0000.0001)                 3.001044073506459E+05,      /* J = 18 */
(PID.TID 0000.0001)                 2.978547649292580E+05,      /* J = 19 */
(PID.TID 0000.0001)                 2.944741346384699E+05,      /* J = 20 */
(PID.TID 0000.0001)                 2.899523122489403E+05,      /* J = 21 */
(PID.TID 0000.0001)                 2.842706922224557E+05,      /* J = 22 */
(PID.TID 0000.0001)                 2.773972106720365E+05,      /* J = 23 */
(PID.TID 0000.0001)                 2.692787333338535E+05,      /* J = 24 */
(PID.TID 0000.0001)                 2.598293319150326E+05,      /* J = 25 */
(PID.TID 0000.0001)                 2.489113743322025E+05,      /* J = 26 */
(PID.TID 0000.0001)                 2.363029564123586E+05,      /* J = 27 */
(PID.TID 0000.0001)                 2.216367828252819E+05,      /* J = 28 */
(PID.TID 0000.0001)                 2.042717761866506E+05,      /* J = 29 */
(PID.TID 0000.0001)                 1.829777599966776E+05,      /* J = 30 */
(PID.TID 0000.0001)                 1.549545757850771E+05,      /* J = 31 */
(PID.TID 0000.0001)                 1.114203141013064E+05       /* J = 32 */
(PID.TID 0000.0001)     ;
(PID.TID 0000.0001) dyC =  /* dyC(:,1,:,1) ( units: m ) */
(PID.TID 0000.0001)                 1.114203141013064E+05,      /* I =  1 */
(PID.TID 0000.0001)                 1.549545757850771E+05,      /* I =  2 */
(PID.TID 0000.0001)                 1.829777599966776E+05,      /* I =  3 */
(PID.TID 0000.0001)      . . .
(PID.TID 0000.0001)                 2.978547649292580E+05,      /* I = 46 */
(PID.TID 0000.0001)                 3.001044073506459E+05,      /* I = 47 */
(PID.TID 0000.0001)                 3.012281885409289E+05,      /* I = 48 */
(PID.TID 0000.0001)                 3.012281885409289E+05,      /* I = 49 */
(PID.TID 0000.0001)                 3.001044073506459E+05,      /* I = 50 */
(PID.TID 0000.0001)                 2.978547649292580E+05,      /* I = 51 */
(PID.TID 0000.0001)      . . .
(PID.TID 0000.0001)                 1.829777599966776E+05,      /* I = 94 */
(PID.TID 0000.0001)                 1.549545757850771E+05,      /* I = 95 */
(PID.TID 0000.0001)                 1.114203141013064E+05,      /* I = 96 */
(PID.TID 0000.0001)                 1.114203141013064E+05,      /* I = 97 */
(PID.TID 0000.0001)                 1.549545757850771E+05,      /* I = 98 */
(PID.TID 0000.0001)                 1.829777599966776E+05,      /* I = 99 */
(PID.TID 0000.0001)      . . .
(PID.TID 0000.0001)                 2.978547649292580E+05,      /* I =142 */
(PID.TID 0000.0001)                 3.001044073506459E+05,      /* I =143 */
(PID.TID 0000.0001)                 3.012281885409289E+05,      /* I =144 */
(PID.TID 0000.0001)                 3.012281885409289E+05,      /* I =145 */
(PID.TID 0000.0001)                 3.001044073506459E+05,      /* I =146 */
(PID.TID 0000.0001)                 2.978547649292580E+05,      /* I =147 */
(PID.TID 0000.0001)      . . .
(PID.TID 0000.0001)                 1.829777599966776E+05,      /* I =190 */
(PID.TID 0000.0001)                 1.549545757850771E+05,      /* I =191 */
(PID.TID 0000.0001)                 1.114203141013064E+05       /* I =192 */
(PID.TID 0000.0001)     ;
(PID.TID 0000.0001) dyC =  /* dyC(1,:,1,:) ( units: m ) */
(PID.TID 0000.0001)                 1.114203141013064E+05,      /* J =  1 */
(PID.TID 0000.0001)                 1.391343389937106E+05,      /* J =  2 */
(PID.TID 0000.0001)                 1.709574999026266E+05,      /* J =  3 */
(PID.TID 0000.0001)                 1.946503699269892E+05,      /* J =  4 */
(PID.TID 0000.0001)                 2.135964483342134E+05,      /* J =  5 */
(PID.TID 0000.0001)                 2.294195678257306E+05,      /* J =  6 */
(PID.TID 0000.0001)                 2.429464709770498E+05,      /* J =  7 */
(PID.TID 0000.0001)                 2.546408290696998E+05,      /* J =  8 */
(PID.TID 0000.0001)                 2.647791839299727E+05,      /* J =  9 */
(PID.TID 0000.0001)                 2.735321911346108E+05,      /* J = 10 */
(PID.TID 0000.0001)                 2.810065951609633E+05,      /* J = 11 */
(PID.TID 0000.0001)                 2.872689479506990E+05,      /* J = 12 */
(PID.TID 0000.0001)                 2.923599955312932E+05,      /* J = 13 */
(PID.TID 0000.0001)                 2.963038832565530E+05,      /* J = 14 */
(PID.TID 0000.0001)                 2.991142470004740E+05,      /* J = 15 */
(PID.TID 0000.0001)                 3.007982711627968E+05,      /* J = 16 */
(PID.TID 0000.0001)                 3.013593857228136E+05,      /* J = 17 */
(PID.TID 0000.0001)                 3.007982711627968E+05,      /* J = 18 */
(PID.TID 0000.0001)                 2.991142470004740E+05,      /* J = 19 */
(PID.TID 0000.0001)                 2.963038832565530E+05,      /* J = 20 */
(PID.TID 0000.0001)                 2.923599955312932E+05,      /* J = 21 */
(PID.TID 0000.0001)                 2.872689479506990E+05,      /* J = 22 */
(PID.TID 0000.0001)                 2.810065951609633E+05,      /* J = 23 */
(PID.TID 0000.0001)                 2.735321911346108E+05,      /* J = 24 */
(PID.TID 0000.0001)                 2.647791839299727E+05,      /* J = 25 */
(PID.TID 0000.0001)                 2.546408290696998E+05,      /* J = 26 */
(PID.TID 0000.0001)                 2.429464709770498E+05,      /* J = 27 */
(PID.TID 0000.0001)                 2.294195678257306E+05,      /* J = 28 */
(PID.TID 0000.0001)                 2.135964483342134E+05,      /* J = 29 */
(PID.TID 0000.0001)                 1.946503699269892E+05,      /* J = 30 */
(PID.TID 0000.0001)                 1.709574999026266E+05,      /* J = 31 */
(PID.TID 0000.0001)                 1.391343389937106E+05       /* J = 32 */
(PID.TID 0000.0001)     ;
(PID.TID 0000.0001) dxV =  /* dxV(:,1,:,1) ( units: m ) */
(PID.TID 0000.0001)                 8.015229982413632E+04,      /* I =  1 */
(PID.TID 0000.0001)                 1.333130744933864E+05,      /* I =  2 */
(PID.TID 0000.0001)                 1.691744868129062E+05,      /* I =  3 */
(PID.TID 0000.0001)      . . .
(PID.TID 0000.0001)                 2.962371870847826E+05,      /* I = 46 */
(PID.TID 0000.0001)                 2.990534755671296E+05,      /* I = 47 */
(PID.TID 0000.0001)                 3.007409169495504E+05,      /* I = 48 */
(PID.TID 0000.0001)                 3.013031486919771E+05,      /* I = 49 */
(PID.TID 0000.0001)                 3.007409169495504E+05,      /* I = 50 */
(PID.TID 0000.0001)                 2.990534755671296E+05,      /* I = 51 */
(PID.TID 0000.0001)      . . .
(PID.TID 0000.0001)                 1.937548202849060E+05,      /* I = 94 */
(PID.TID 0000.0001)                 1.691744868129062E+05,      /* I = 95 */
(PID.TID 0000.0001)                 1.333130744933864E+05,      /* I = 96 */
(PID.TID 0000.0001)                 8.015229982413632E+04,      /* I = 97 */
(PID.TID 0000.0001)                 1.333130744933864E+05,      /* I = 98 */
(PID.TID 0000.0001)                 1.691744868129062E+05,      /* I = 99 */
(PID.TID 0000.0001)      . . .
(PID.TID 0000.0001)                 2.962371870847826E+05,      /* I =142 */
(PID.TID 0000.0001)                 2.990534755671296E+05,      /* I =143 */
(PID.TID 0000.0001)                 3.007409169495504E+05,      /* I =144 */
(PID.TID 0000.0001)                 3.013031486919771E+05,      /* I =145 */
(PID.TID 0000.0001)                 3.007409169495504E+05,      /* I =146 */
(PID.TID 0000.0001)                 2.990534755671296E+05,      /* I =147 */
(PID.TID 0000.0001)      . . .
(PID.TID 0000.0001)                 1.937548202849060E+05,      /* I =190 */
(PID.TID 0000.0001)                 1.691744868129062E+05,      /* I =191 */
(PID.TID 0000.0001)                 1.333130744933864E+05       /* I =192 */
(PID.TID 0000.0001)     ;
(PID.TID 0000.0001) dxV =  /* dxV(1,:,1,:) ( units: m ) */
(PID.TID 0000.0001)                 8.015229982413632E+04,      /* J =  1 */
(PID.TID 0000.0001)                 1.362652340208229E+05,      /* J =  2 */
(PID.TID 0000.0001)                 1.701080315742101E+05,      /* J =  3 */
(PID.TID 0000.0001)                 1.942331448101592E+05,      /* J =  4 */
(PID.TID 0000.0001)                 2.133486626971531E+05,      /* J =  5 */
(PID.TID 0000.0001)                 2.292584591272880E+05,      /* J =  6 */
(PID.TID 0000.0001)                 2.428369969078989E+05,      /* J =  7 */
(PID.TID 0000.0001)                 2.545652950875683E+05,      /* J =  8 */
(PID.TID 0000.0001)                 2.647274964828301E+05,      /* J =  9 */
(PID.TID 0000.0001)                 2.734980225206389E+05,      /* J = 10 */
(PID.TID 0000.0001)                 2.809856491525217E+05,      /* J = 11 */
(PID.TID 0000.0001)                 2.872580915202295E+05,      /* J = 12 */
(PID.TID 0000.0001)                 2.923567890694162E+05,      /* J = 13 */
(PID.TID 0000.0001)                 2.963063101754721E+05,      /* J = 14 */
(PID.TID 0000.0001)                 2.991205495886625E+05,      /* J = 15 */
(PID.TID 0000.0001)                 3.008068453676764E+05,      /* J = 16 */
(PID.TID 0000.0001)                 3.013686170436881E+05,      /* J = 17 */
(PID.TID 0000.0001)                 3.008068453676764E+05,      /* J = 18 */
(PID.TID 0000.0001)                 2.991205495886625E+05,      /* J = 19 */
(PID.TID 0000.0001)                 2.963063101754721E+05,      /* J = 20 */
(PID.TID 0000.0001)                 2.923567890694162E+05,      /* J = 21 */
(PID.TID 0000.0001)                 2.872580915202295E+05,      /* J = 22 */
(PID.TID 0000.0001)                 2.809856491525217E+05,      /* J = 23 */
(PID.TID 0000.0001)                 2.734980225206389E+05,      /* J = 24 */
(PID.TID 0000.0001)                 2.647274964828301E+05,      /* J = 25 */
(PID.TID 0000.0001)                 2.545652950875683E+05,      /* J = 26 */
(PID.TID 0000.0001)                 2.428369969078989E+05,      /* J = 27 */
(PID.TID 0000.0001)                 2.292584591272880E+05,      /* J = 28 */
(PID.TID 0000.0001)                 2.133486626971531E+05,      /* J = 29 */
(PID.TID 0000.0001)                 1.942331448101592E+05,      /* J = 30 */
(PID.TID 0000.0001)                 1.701080315742101E+05,      /* J = 31 */
(PID.TID 0000.0001)                 1.362652340208229E+05       /* J = 32 */
(PID.TID 0000.0001)     ;
(PID.TID 0000.0001) dyU =  /* dyU(:,1,:,1) ( units: m ) */
(PID.TID 0000.0001)                 8.015229982413632E+04,      /* I =  1 */
(PID.TID 0000.0001)                 1.362652340208229E+05,      /* I =  2 */
(PID.TID 0000.0001)                 1.701080315742101E+05,      /* I =  3 */
(PID.TID 0000.0001)      . . .
(PID.TID 0000.0001)                 2.963063101754721E+05,      /* I = 46 */
(PID.TID 0000.0001)                 2.991205495886625E+05,      /* I = 47 */
(PID.TID 0000.0001)                 3.008068453676764E+05,      /* I = 48 */
(PID.TID 0000.0001)                 3.013686170436881E+05,      /* I = 49 */
(PID.TID 0000.0001)                 3.008068453676764E+05,      /* I = 50 */
(PID.TID 0000.0001)                 2.991205495886625E+05,      /* I = 51 */
(PID.TID 0000.0001)      . . .
(PID.TID 0000.0001)                 1.942331448101592E+05,      /* I = 94 */
(PID.TID 0000.0001)                 1.701080315742101E+05,      /* I = 95 */
(PID.TID 0000.0001)                 1.362652340208229E+05,      /* I = 96 */
(PID.TID 0000.0001)                 8.015229982413632E+04,      /* I = 97 */
(PID.TID 0000.0001)                 1.362652340208229E+05,      /* I = 98 */
(PID.TID 0000.0001)                 1.701080315742101E+05,      /* I = 99 */
(PID.TID 0000.0001)      . . .
(PID.TID 0000.0001)                 2.963063101754721E+05,      /* I =142 */
(PID.TID 0000.0001)                 2.991205495886625E+05,      /* I =143 */
(PID.TID 0000.0001)                 3.008068453676764E+05,      /* I =144 */
(PID.TID 0000.0001)                 3.013686170436881E+05,      /* I =145 */
(PID.TID 0000.0001)                 3.008068453676764E+05,      /* I =146 */
(PID.TID 0000.0001)                 2.991205495886625E+05,      /* I =147 */
(PID.TID 0000.0001)      . . .
(PID.TID 0000.0001)                 1.942331448101592E+05,      /* I =190 */
(PID.TID 0000.0001)                 1.701080315742101E+05,      /* I =191 */
(PID.TID 0000.0001)                 1.362652340208229E+05       /* I =192 */
(PID.TID 0000.0001)     ;
(PID.TID 0000.0001) dyU =  /* dyU(1,:,1,:) ( units: m ) */
(PID.TID 0000.0001)                 8.015229982413632E+04,      /* J =  1 */
(PID.TID 0000.0001)                 1.333130744933864E+05,      /* J =  2 */
(PID.TID 0000.0001)                 1.691744868129062E+05,      /* J =  3 */
(PID.TID 0000.0001)                 1.937548202849060E+05,      /* J =  4 */
(PID.TID 0000.0001)                 2.130490056267208E+05,      /* J =  5 */
(PID.TID 0000.0001)                 2.290479919481738E+05,      /* J =  6 */
(PID.TID 0000.0001)                 2.426774358027003E+05,      /* J =  7 */
(PID.TID 0000.0001)                 2.544372984215561E+05,      /* J =  8 */
(PID.TID 0000.0001)                 2.646201463834826E+05,      /* J =  9 */
(PID.TID 0000.0001)                 2.734046499619031E+05,      /* J = 10 */
(PID.TID 0000.0001)                 2.809019351693761E+05,      /* J = 11 */
(PID.TID 0000.0001)                 2.871811105274442E+05,      /* J = 12 */
(PID.TID 0000.0001)                 2.922844849381675E+05,      /* J = 13 */
(PID.TID 0000.0001)                 2.962371870847826E+05,      /* J = 14 */
(PID.TID 0000.0001)                 2.990534755671296E+05,      /* J = 15 */
(PID.TID 0000.0001)                 3.007409169495504E+05,      /* J = 16 */
(PID.TID 0000.0001)                 3.013031486919771E+05,      /* J = 17 */
(PID.TID 0000.0001)                 3.007409169495504E+05,      /* J = 18 */
(PID.TID 0000.0001)                 2.990534755671296E+05,      /* J = 19 */
(PID.TID 0000.0001)                 2.962371870847826E+05,      /* J = 20 */
(PID.TID 0000.0001)                 2.922844849381675E+05,      /* J = 21 */
(PID.TID 0000.0001)                 2.871811105274442E+05,      /* J = 22 */
(PID.TID 0000.0001)                 2.809019351693761E+05,      /* J = 23 */
(PID.TID 0000.0001)                 2.734046499619031E+05,      /* J = 24 */
(PID.TID 0000.0001)                 2.646201463834826E+05,      /* J = 25 */
(PID.TID 0000.0001)                 2.544372984215561E+05,      /* J = 26 */
(PID.TID 0000.0001)                 2.426774358027003E+05,      /* J = 27 */
(PID.TID 0000.0001)                 2.290479919481738E+05,      /* J = 28 */
(PID.TID 0000.0001)                 2.130490056267208E+05,      /* J = 29 */
(PID.TID 0000.0001)                 1.937548202849060E+05,      /* J = 30 */
(PID.TID 0000.0001)                 1.691744868129062E+05,      /* J = 31 */
(PID.TID 0000.0001)                 1.333130744933864E+05       /* J = 32 */
(PID.TID 0000.0001)     ;
(PID.TID 0000.0001) rA  =  /* rA (:,1,:,1) ( units: m^2 ) */
(PID.TID 0000.0001)                 1.401900702255611E+10,      /* I =  1 */
(PID.TID 0000.0001)                 2.459906945574446E+10,      /* I =  2 */
(PID.TID 0000.0001)                 3.378518544307869E+10,      /* I =  3 */
(PID.TID 0000.0001)      . . .
(PID.TID 0000.0001)                 8.874277443041928E+10,      /* I = 46 */
(PID.TID 0000.0001)                 9.008620045350865E+10,      /* I = 47 */
(PID.TID 0000.0001)                 9.076111290418457E+10,      /* I = 48 */
(PID.TID 0000.0001)                 9.076111290422060E+10,      /* I = 49 */
(PID.TID 0000.0001)                 9.008620045354469E+10,      /* I = 50 */
(PID.TID 0000.0001)                 8.874277443041928E+10,      /* I = 51 */
(PID.TID 0000.0001)      . . .
(PID.TID 0000.0001)                 3.378518544304265E+10,      /* I = 94 */
(PID.TID 0000.0001)                 2.459906945574446E+10,      /* I = 95 */
(PID.TID 0000.0001)                 1.401900702259215E+10,      /* I = 96 */
(PID.TID 0000.0001)                 1.401900702255611E+10,      /* I = 97 */
(PID.TID 0000.0001)                 2.459906945574446E+10,      /* I = 98 */
(PID.TID 0000.0001)                 3.378518544307869E+10,      /* I = 99 */
(PID.TID 0000.0001)      . . .
(PID.TID 0000.0001)                 8.874277443041928E+10,      /* I =142 */
(PID.TID 0000.0001)                 9.008620045350865E+10,      /* I =143 */
(PID.TID 0000.0001)                 9.076111290418457E+10,      /* I =144 */
(PID.TID 0000.0001)                 9.076111290422060E+10,      /* I =145 */
(PID.TID 0000.0001)                 9.008620045354469E+10,      /* I =146 */
(PID.TID 0000.0001)                 8.874277443041928E+10,      /* I =147 */
(PID.TID 0000.0001)      . . .
(PID.TID 0000.0001)                 3.378518544304265E+10,      /* I =190 */
(PID.TID 0000.0001)                 2.459906945574446E+10,      /* I =191 */
(PID.TID 0000.0001)                 1.401900702259215E+10       /* I =192 */
(PID.TID 0000.0001)     ;
(PID.TID 0000.0001) rA  =  /* rA (1,:,1,:) ( units: m^2 ) */
(PID.TID 0000.0001)                 1.401900702255611E+10,      /* J =  1 */
(PID.TID 0000.0001)                 2.459906945574446E+10,      /* J =  2 */
(PID.TID 0000.0001)                 3.378518544307869E+10,      /* J =  3 */
(PID.TID 0000.0001)                 4.192037169898667E+10,      /* J =  4 */
(PID.TID 0000.0001)                 4.925938996118163E+10,      /* J =  5 */
(PID.TID 0000.0001)                 5.594154126607553E+10,      /* J =  6 */
(PID.TID 0000.0001)                 6.203683527776127E+10,      /* J =  7 */
(PID.TID 0000.0001)                 6.757541173817516E+10,      /* J =  8 */
(PID.TID 0000.0001)                 7.256353271748119E+10,      /* J =  9 */
(PID.TID 0000.0001)                 7.699293007098555E+10,      /* J = 10 */
(PID.TID 0000.0001)                 8.084683449728902E+10,      /* J = 11 */
(PID.TID 0000.0001)                 8.410423102799828E+10,      /* J = 12 */
(PID.TID 0000.0001)                 8.674306976737517E+10,      /* J = 13 */
(PID.TID 0000.0001)                 8.874277443041928E+10,      /* J = 14 */
(PID.TID 0000.0001)                 9.008620045350865E+10,      /* J = 15 */
(PID.TID 0000.0001)                 9.076111290418457E+10,      /* J = 16 */
(PID.TID 0000.0001)                 9.076111290422060E+10,      /* J = 17 */
(PID.TID 0000.0001)                 9.008620045354469E+10,      /* J = 18 */
(PID.TID 0000.0001)                 8.874277443041928E+10,      /* J = 19 */
(PID.TID 0000.0001)                 8.674306976737517E+10,      /* J = 20 */
(PID.TID 0000.0001)                 8.410423102799828E+10,      /* J = 21 */
(PID.TID 0000.0001)                 8.084683449728902E+10,      /* J = 22 */
(PID.TID 0000.0001)                 7.699293007098555E+10,      /* J = 23 */
(PID.TID 0000.0001)                 7.256353271748119E+10,      /* J = 24 */
(PID.TID 0000.0001)                 6.757541173817516E+10,      /* J = 25 */
(PID.TID 0000.0001)                 6.203683527772523E+10,      /* J = 26 */
(PID.TID 0000.0001)                 5.594154126607553E+10,      /* J = 27 */
(PID.TID 0000.0001)                 4.925938996118163E+10,      /* J = 28 */
(PID.TID 0000.0001)                 4.192037169898667E+10,      /* J = 29 */
(PID.TID 0000.0001)                 3.378518544307869E+10,      /* J = 30 */
(PID.TID 0000.0001)                 2.459906945574446E+10,      /* J = 31 */
(PID.TID 0000.0001)                 1.401900702259215E+10       /* J = 32 */
(PID.TID 0000.0001)     ;
(PID.TID 0000.0001) rAw =  /* rAw(:,1,:,1) ( units: m^2 ) */
(PID.TID 0000.0001)                 1.216690346714270E+10,      /* I =  1 */
(PID.TID 0000.0001)                 1.974052138506315E+10,      /* I =  2 */
(PID.TID 0000.0001)                 2.943712825252015E+10,      /* I =  3 */
(PID.TID 0000.0001)      . . .
(PID.TID 0000.0001)                 8.781353403175085E+10,      /* I = 46 */
(PID.TID 0000.0001)                 8.948571540392021E+10,      /* I = 47 */
(PID.TID 0000.0001)                 9.049530583086168E+10,      /* I = 48 */
(PID.TID 0000.0001)                 9.083293515008307E+10,      /* I = 49 */
(PID.TID 0000.0001)                 9.049530583087070E+10,      /* I = 50 */
(PID.TID 0000.0001)                 8.948571540391121E+10,      /* I = 51 */
(PID.TID 0000.0001)      . . .
(PID.TID 0000.0001)                 3.801790263325260E+10,      /* I = 94 */
(PID.TID 0000.0001)                 2.943712825251114E+10,      /* I = 95 */
(PID.TID 0000.0001)                 1.974052138509018E+10,      /* I = 96 */
(PID.TID 0000.0001)                 1.216690346714270E+10,      /* I = 97 */
(PID.TID 0000.0001)                 1.974052138506315E+10,      /* I = 98 */
(PID.TID 0000.0001)                 2.943712825252015E+10,      /* I = 99 */
(PID.TID 0000.0001)      . . .
(PID.TID 0000.0001)                 8.781353403175085E+10,      /* I =142 */
(PID.TID 0000.0001)                 8.948571540392021E+10,      /* I =143 */
(PID.TID 0000.0001)                 9.049530583086168E+10,      /* I =144 */
(PID.TID 0000.0001)                 9.083293515008307E+10,      /* I =145 */
(PID.TID 0000.0001)                 9.049530583087070E+10,      /* I =146 */
(PID.TID 0000.0001)                 8.948571540391121E+10,      /* I =147 */
(PID.TID 0000.0001)      . . .
(PID.TID 0000.0001)                 3.801790263325260E+10,      /* I =190 */
(PID.TID 0000.0001)                 2.943712825251114E+10,      /* I =191 */
(PID.TID 0000.0001)                 1.974052138509018E+10       /* I =192 */
(PID.TID 0000.0001)     ;
(PID.TID 0000.0001) rAw =  /* rAw(1,:,1,:) ( units: m^2 ) */
(PID.TID 0000.0001)                 1.216690346714270E+10,      /* J =  1 */
(PID.TID 0000.0001)                 2.390126200743558E+10,      /* J =  2 */
(PID.TID 0000.0001)                 3.341968103208270E+10,      /* J =  3 */
(PID.TID 0000.0001)                 4.168532893152940E+10,      /* J =  4 */
(PID.TID 0000.0001)                 4.909074590409593E+10,      /* J =  5 */
(PID.TID 0000.0001)                 5.581203765722643E+10,      /* J =  6 */
(PID.TID 0000.0001)                 6.193257577506788E+10,      /* J =  7 */
(PID.TID 0000.0001)                 6.748840226738273E+10,      /* J =  8 */
(PID.TID 0000.0001)                 7.248875782324815E+10,      /* J =  9 */
(PID.TID 0000.0001)                 7.692702995909871E+10,      /* J = 10 */
(PID.TID 0000.0001)                 8.078743937057304E+10,      /* J = 11 */
(PID.TID 0000.0001)                 8.404959656062837E+10,      /* J = 12 */
(PID.TID 0000.0001)                 8.669186205742538E+10,      /* J = 13 */
(PID.TID 0000.0001)                 8.869393350723613E+10,      /* J = 14 */
(PID.TID 0000.0001)                 9.003884657168852E+10,      /* J = 15 */
(PID.TID 0000.0001)     2 @  9.071447638299399E+10,             /* J = 16: 17 */
(PID.TID 0000.0001)                 9.003884657168852E+10,      /* J = 18 */
(PID.TID 0000.0001)                 8.869393350723613E+10,      /* J = 19 */
(PID.TID 0000.0001)                 8.669186205742538E+10,      /* J = 20 */
(PID.TID 0000.0001)                 8.404959656062837E+10,      /* J = 21 */
(PID.TID 0000.0001)                 8.078743937057304E+10,      /* J = 22 */
(PID.TID 0000.0001)                 7.692702995909871E+10,      /* J = 23 */
(PID.TID 0000.0001)                 7.248875782324815E+10,      /* J = 24 */
(PID.TID 0000.0001)                 6.748840226738273E+10,      /* J = 25 */
(PID.TID 0000.0001)                 6.193257577506788E+10,      /* J = 26 */
(PID.TID 0000.0001)                 5.581203765722643E+10,      /* J = 27 */
(PID.TID 0000.0001)                 4.909074590409593E+10,      /* J = 28 */
(PID.TID 0000.0001)                 4.168532893152940E+10,      /* J = 29 */
(PID.TID 0000.0001)                 3.341968103208270E+10,      /* J = 30 */
(PID.TID 0000.0001)                 2.390126200743558E+10,      /* J = 31 */
(PID.TID 0000.0001)                 1.216690346714270E+10       /* J = 32 */
(PID.TID 0000.0001)     ;
(PID.TID 0000.0001) rAs =  /* rAs(:,1,:,1) ( units: m^2 ) */
(PID.TID 0000.0001)                 1.216690346714270E+10,      /* I =  1 */
(PID.TID 0000.0001)                 2.390126200743558E+10,      /* I =  2 */
(PID.TID 0000.0001)                 3.341968103208270E+10,      /* I =  3 */
(PID.TID 0000.0001)      . . .
(PID.TID 0000.0001)                 8.869393350723613E+10,      /* I = 46 */
(PID.TID 0000.0001)                 9.003884657168852E+10,      /* I = 47 */
(PID.TID 0000.0001)                 9.071447638299399E+10,      /* I = 48 */
(PID.TID 0000.0001)                 9.071447638299399E+10,      /* I = 49 */
(PID.TID 0000.0001)                 9.003884657168852E+10,      /* I = 50 */
(PID.TID 0000.0001)                 8.869393350723613E+10,      /* I = 51 */
(PID.TID 0000.0001)      . . .
(PID.TID 0000.0001)                 3.341968103208270E+10,      /* I = 94 */
(PID.TID 0000.0001)                 2.390126200743558E+10,      /* I = 95 */
(PID.TID 0000.0001)                 1.216690346714270E+10,      /* I = 96 */
(PID.TID 0000.0001)                 1.216690346714270E+10,      /* I = 97 */
(PID.TID 0000.0001)                 2.390126200743558E+10,      /* I = 98 */
(PID.TID 0000.0001)                 3.341968103208270E+10,      /* I = 99 */
(PID.TID 0000.0001)      . . .
(PID.TID 0000.0001)                 8.869393350723613E+10,      /* I =142 */
(PID.TID 0000.0001)                 9.003884657168852E+10,      /* I =143 */
(PID.TID 0000.0001)                 9.071447638299399E+10,      /* I =144 */
(PID.TID 0000.0001)                 9.071447638299399E+10,      /* I =145 */
(PID.TID 0000.0001)                 9.003884657168852E+10,      /* I =146 */
(PID.TID 0000.0001)                 8.869393350723613E+10,      /* I =147 */
(PID.TID 0000.0001)      . . .
(PID.TID 0000.0001)                 3.341968103208270E+10,      /* I =190 */
(PID.TID 0000.0001)                 2.390126200743558E+10,      /* I =191 */
(PID.TID 0000.0001)                 1.216690346714270E+10       /* I =192 */
(PID.TID 0000.0001)     ;
(PID.TID 0000.0001) rAs =  /* rAs(1,:,1,:) ( units: m^2 ) */
(PID.TID 0000.0001)                 1.216690346714270E+10,      /* J =  1 */
(PID.TID 0000.0001)                 1.974052138506315E+10,      /* J =  2 */
(PID.TID 0000.0001)                 2.943712825252015E+10,      /* J =  3 */
(PID.TID 0000.0001)                 3.801790263324359E+10,      /* J =  4 */
(PID.TID 0000.0001)                 4.571243814189866E+10,      /* J =  5 */
(PID.TID 0000.0001)                 5.269930713599979E+10,      /* J =  6 */
(PID.TID 0000.0001)                 5.907428494299063E+10,      /* J =  7 */
(PID.TID 0000.0001)                 6.488320895111514E+10,      /* J =  8 */
(PID.TID 0000.0001)                 7.014205907741882E+10,      /* J =  9 */
(PID.TID 0000.0001)                 7.484854821847499E+10,      /* J = 10 */
(PID.TID 0000.0001)                 7.898934631431560E+10,      /* J = 11 */
(PID.TID 0000.0001)                 8.254500894894537E+10,      /* J = 12 */
(PID.TID 0000.0001)                 8.549360686473492E+10,      /* J = 13 */
(PID.TID 0000.0001)                 8.781353403175085E+10,      /* J = 14 */
(PID.TID 0000.0001)                 8.948571540392021E+10,      /* J = 15 */
(PID.TID 0000.0001)                 9.049530583086168E+10,      /* J = 16 */
(PID.TID 0000.0001)                 9.083293515008307E+10,      /* J = 17 */
(PID.TID 0000.0001)                 9.049530583087070E+10,      /* J = 18 */
(PID.TID 0000.0001)                 8.948571540391121E+10,      /* J = 19 */
(PID.TID 0000.0001)                 8.781353403174185E+10,      /* J = 20 */
(PID.TID 0000.0001)                 8.549360686467184E+10,      /* J = 21 */
(PID.TID 0000.0001)                 8.254500894890933E+10,      /* J = 22 */
(PID.TID 0000.0001)                 7.898934631434262E+10,      /* J = 23 */
(PID.TID 0000.0001)                 7.484854821844795E+10,      /* J = 24 */
(PID.TID 0000.0001)                 7.014205907742783E+10,      /* J = 25 */
(PID.TID 0000.0001)                 6.488320895111514E+10,      /* J = 26 */
(PID.TID 0000.0001)                 5.907428494299063E+10,      /* J = 27 */
(PID.TID 0000.0001)                 5.269930713599078E+10,      /* J = 28 */
(PID.TID 0000.0001)                 4.571243814190767E+10,      /* J = 29 */
(PID.TID 0000.0001)                 3.801790263325260E+10,      /* J = 30 */
(PID.TID 0000.0001)                 2.943712825251114E+10,      /* J = 31 */
(PID.TID 0000.0001)                 1.974052138509018E+10       /* J = 32 */
(PID.TID 0000.0001)     ;
(PID.TID 0000.0001) globalArea = /* Integrated horizontal Area (m^2) */
(PID.TID 0000.0001)                 5.099043637817220E+14
(PID.TID 0000.0001)     ;
(PID.TID 0000.0001) hasWetCSCorners = /* Domain contains CS corners (True/False) */
(PID.TID 0000.0001)                   T
(PID.TID 0000.0001)     ;
(PID.TID 0000.0001) // =======================================================
(PID.TID 0000.0001) // End of Model config. summary
(PID.TID 0000.0001) // =======================================================
(PID.TID 0000.0001) 
(PID.TID 0000.0001) == Packages configuration : Check & print summary ==
(PID.TID 0000.0001) 
(PID.TID 0000.0001) GAD_CHECK: #define ALLOW_GENERIC_ADVDIFF
(PID.TID 0000.0001) // =======================================================
(PID.TID 0000.0001) // Check Model config. (CONFIG_CHECK):
(PID.TID 0000.0001) // CONFIG_CHECK : Normal End
(PID.TID 0000.0001) // =======================================================
(PID.TID 0000.0001) 
(PID.TID 0000.0001)  MDS_READ_META: opening file: pickup.0000276480.meta
(PID.TID 0000.0001)  nRecords = 163 ; filePrec =  64 ; fileIter =    276480
(PID.TID 0000.0001)     nDims =   2 , dims:
(PID.TID 0000.0001)    1: 192   1 192
(PID.TID 0000.0001)    2:  32   1  32
(PID.TID 0000.0001)     nFlds =  11 , nFl3D =   8 , fields:
(PID.TID 0000.0001)  >Uvel    < >GuNm1   < >Vvel    < >GvNm1   < >Theta   < >GtNm1   < >Salt    < >GsNm1   < >EtaN    < >dEtaHdt < >EtaH    <
(PID.TID 0000.0001) missingVal=  1.00000000000000E+00 ; nTimRec =   0 , timeList:
(PID.TID 0000.0001) READ_MFLDS_3D_RL: read field: "Uvel    ", #   1 in fldList, rec=   1
(PID.TID 0000.0001)  MDS_READ_FIELD: opening global file: pickup.0000276480
(PID.TID 0000.0001) READ_MFLDS_3D_RL: read field: "Vvel    ", #   3 in fldList, rec=   3
(PID.TID 0000.0001)  MDS_READ_FIELD: opening global file: pickup.0000276480
(PID.TID 0000.0001) READ_MFLDS_3D_RL: read field: "Theta   ", #   5 in fldList, rec=   5
(PID.TID 0000.0001)  MDS_READ_FIELD: opening global file: pickup.0000276480
(PID.TID 0000.0001) READ_MFLDS_3D_RL: read field: "Salt    ", #   7 in fldList, rec=   7
(PID.TID 0000.0001)  MDS_READ_FIELD: opening global file: pickup.0000276480
(PID.TID 0000.0001) READ_MFLDS_3D_RL: read field: "GuNm1   ", #   2 in fldList, rec=   2
(PID.TID 0000.0001)  MDS_READ_FIELD: opening global file: pickup.0000276480
(PID.TID 0000.0001) READ_MFLDS_3D_RL: read field: "GvNm1   ", #   4 in fldList, rec=   4
(PID.TID 0000.0001)  MDS_READ_FIELD: opening global file: pickup.0000276480
(PID.TID 0000.0001) READ_MFLDS_3D_RL: read field: "GtNm1   ", #   6 in fldList, rec=   6
(PID.TID 0000.0001)  MDS_READ_FIELD: opening global file: pickup.0000276480
(PID.TID 0000.0001) READ_MFLDS_3D_RL: read field: "EtaN    ", #   9 in fldList, rec= 161
(PID.TID 0000.0001)  MDS_READ_FIELD: opening global file: pickup.0000276480
(PID.TID 0000.0001) READ_MFLDS_3D_RL: read field: "dEtaHdt ", #  10 in fldList, rec= 162
(PID.TID 0000.0001)  MDS_READ_FIELD: opening global file: pickup.0000276480
(PID.TID 0000.0001) READ_MFLDS_3D_RL: read field: "EtaH    ", #  11 in fldList, rec= 163
(PID.TID 0000.0001)  MDS_READ_FIELD: opening global file: pickup.0000276480
(PID.TID 0000.0001) READ_MFLDS_CHECK: - normal end ; reset MFLDS file-name: pickup.0000276480
(PID.TID 0000.0001)  write diagnostics summary to file ioUnit:      6
Iter.Nb:    276480 ; Time(s):  1.2441600000000E+08
------------------------------------------------------------------------
2D/3D diagnostics: Number of lists:     3
------------------------------------------------------------------------
listId=    1 ; file name: surfDiag
 nFlds, nActive,       freq     &     phase        , nLev               
    3  |    3  |     86400.000000         0.000000 |   1
 levels:   1
 diag# | name   |   ipt  |  iMate | kLev|   count |   mate.C|           
    23 |ETAN    |      1 |      0 |   1 |       0 |
    24 |ETANSQ  |      2 |      0 |   1 |       0 |
    25 |DETADT2 |      3 |      0 |   1 |       0 |
------------------------------------------------------------------------
listId=    2 ; file name: dynDiag
 nFlds, nActive,       freq     &     phase        , nLev               
    5  |    5  |     86400.000000         0.000000 |  20
 levels:   1   2   3   4   5   6   7   8   9  10  11  12  13  14  15  16  17  18  19  20
 diag# | name   |   ipt  |  iMate | kLev|   count |   mate.C|           
    29 |UVEL    |      4 |     24 |  20 |       0 |       0 |
    30 |VVEL    |     24 |      4 |  20 |       0 |       0 |
    31 |WVEL    |     44 |      0 |  20 |       0 |
    26 |THETA   |     64 |      0 |  20 |       0 |
   185 |SHAP_dU |     84 |      0 |  20 |       0 |
------------------------------------------------------------------------
listId=    3 ; file name: secmomDiag
 nFlds, nActive,       freq     &     phase        , nLev               
    8  |    8  |     86400.000000         0.000000 |  20
 levels:   1   2   3   4   5   6   7   8   9  10  11  12  13  14  15  16  17  18  19  20
 diag# | name   |   ipt  |  iMate | kLev|   count |   mate.C|           
    34 |UVELSQ  |    104 |    124 |  20 |       0 |       0 |
    35 |VVELSQ  |    124 |    104 |  20 |       0 |       0 |
    36 |WVELSQ  |    144 |      0 |  20 |       0 |
    32 |THETASQ |    164 |      0 |  20 |       0 |
    48 |UTHMASS |    184 |    204 |  20 |       0 |       0 |
    49 |VTHMASS |    204 |    184 |  20 |       0 |       0 |
    56 |WVELTH  |    224 |      0 |  20 |       0 |
    39 |UV_VEL_C|    244 |    244 |  20 |       0 |       0 |
------------------------------------------------------------------------
Global & Regional Statistics diagnostics: Number of lists:     1
------------------------------------------------------------------------
listId=   1 ; file name: dynStDiag
 nFlds, nActive,       freq     &     phase        |                    
    5  |    5  |     -3600.000000      1800.000000 |
 Regions:   0
 diag# | name   |   ipt  |  iMate |    Volume   |   mate-Vol. |         
    23 |ETAN    |      1 |      0 | 0.00000E+00 |
    29 |UVEL    |      2 |      0 | 0.00000E+00 |
    30 |VVEL    |     22 |      0 | 0.00000E+00 |
    31 |WVEL    |     42 |      0 | 0.00000E+00 |
    26 |THETA   |     62 |      0 | 0.00000E+00 |
------------------------------------------------------------------------
(PID.TID 0000.0001) // =======================================================
(PID.TID 0000.0001) // Model current state
(PID.TID 0000.0001) // =======================================================
(PID.TID 0000.0001) 
(PID.TID 0000.0001) // =======================================================
(PID.TID 0000.0001) // Begin MONITOR dynamic field statistics
(PID.TID 0000.0001) // =======================================================
(PID.TID 0000.0001) %MON time_tsnumber                =                276480
(PID.TID 0000.0001) %MON time_secondsf                =   1.2441600000000E+08
(PID.TID 0000.0001) %MON dynstat_eta_max              =   2.5686020507311E+03
(PID.TID 0000.0001) %MON dynstat_eta_min              =  -3.5034391132246E+03
(PID.TID 0000.0001) %MON dynstat_eta_mean             =  -2.1849430582181E-13
(PID.TID 0000.0001) %MON dynstat_eta_sd               =   8.2461825997798E+02
(PID.TID 0000.0001) %MON dynstat_eta_del2             =   2.1045304853833E+00
(PID.TID 0000.0001) %MON dynstat_uvel_max             =   6.7214548915456E+01
(PID.TID 0000.0001) %MON dynstat_uvel_min             =  -6.6409813499555E+01
(PID.TID 0000.0001) %MON dynstat_uvel_mean            =   2.0486719779662E+00
(PID.TID 0000.0001) %MON dynstat_uvel_sd              =   1.1160413327161E+01
(PID.TID 0000.0001) %MON dynstat_uvel_del2            =   1.0721825714291E-02
(PID.TID 0000.0001) %MON dynstat_vvel_max             =   7.1882586801982E+01
(PID.TID 0000.0001) %MON dynstat_vvel_min             =  -6.8638934014956E+01
(PID.TID 0000.0001) %MON dynstat_vvel_mean            =   2.0133330339157E+00
(PID.TID 0000.0001) %MON dynstat_vvel_sd              =   1.1670343153922E+01
(PID.TID 0000.0001) %MON dynstat_vvel_del2            =   1.1019864708904E-02
(PID.TID 0000.0001) %MON dynstat_wvel_max             =   8.3338352054040E-01
(PID.TID 0000.0001) %MON dynstat_wvel_min             =  -6.6411583834321E-01
(PID.TID 0000.0001) %MON dynstat_wvel_mean            =  -3.3792158794203E-18
(PID.TID 0000.0001) %MON dynstat_wvel_sd              =   6.6034456847098E-02
(PID.TID 0000.0001) %MON dynstat_wvel_del2            =   2.0685428137883E-04
(PID.TID 0000.0001) %MON dynstat_theta_max            =   5.9603304952318E+02
(PID.TID 0000.0001) %MON dynstat_theta_min            =   2.6185719063325E+02
(PID.TID 0000.0001) %MON dynstat_theta_mean           =   3.2766072081677E+02
(PID.TID 0000.0001) %MON dynstat_theta_sd             =   6.3757555232907E+01
(PID.TID 0000.0001) %MON dynstat_theta_del2           =   5.1653976615491E-03
(PID.TID 0000.0001) %MON dynstat_salt_max             =   0.0000000000000E+00
(PID.TID 0000.0001) %MON dynstat_salt_min             =   0.0000000000000E+00
(PID.TID 0000.0001) %MON dynstat_salt_mean            =   0.0000000000000E+00
(PID.TID 0000.0001) %MON dynstat_salt_sd              =   0.0000000000000E+00
(PID.TID 0000.0001) %MON dynstat_salt_del2            =   0.0000000000000E+00
(PID.TID 0000.0001) %MON advcfl_uvel_max              =   2.6821335333544E-01
(PID.TID 0000.0001) %MON advcfl_vvel_max              =   2.2671784577986E-01
(PID.TID 0000.0001) %MON advcfl_wvel_max              =   7.5004516848636E-02
(PID.TID 0000.0001) %MON advcfl_W_hf_max              =   7.4169071807869E-02
(PID.TID 0000.0001) %MON am_eta_mean                  =  -2.9342977460864E+09
(PID.TID 0000.0001) %MON am_uZo_mean                  =   2.8068221138068E+11
(PID.TID 0000.0001) %MON am_tot_mean                  =   2.7774791363460E+11
(PID.TID 0000.0001) %MON pe_b_mean                    =   2.8791077644082E+00
(PID.TID 0000.0001) %MON ke_max                       =   3.2602670775050E+03
(PID.TID 0000.0001) %MON ke_mean                      =   1.3446589237618E+02
(PID.TID 0000.0001) %MON ke_vol                       =   5.0990436378173E+19
(PID.TID 0000.0001) %MON vort_r_min                   =  -1.7768497633397E-04
(PID.TID 0000.0001) %MON vort_r_max                   =   2.2145611811367E-04
(PID.TID 0000.0001) %MON vort_a_mean                  =  -3.1867617259207E-20
(PID.TID 0000.0001) %MON vort_a_sd                    =   8.8620239601413E-05
(PID.TID 0000.0001) %MON vort_p_mean                  =  -2.9416243551483E-20
(PID.TID 0000.0001) %MON vort_p_sd                    =   8.8695764907692E-05
(PID.TID 0000.0001) %MON surfExpan_theta_mean         =  -1.6723049831638E-03
(PID.TID 0000.0001) %MON surfExpan_salt_mean          =   0.0000000000000E+00
(PID.TID 0000.0001) %MON surfExpan_Heat_mean          =  -2.1332029750089E-01
(PID.TID 0000.0001) %MON En_Budget_T2PE_mean          =   1.1463630872654E+00
(PID.TID 0000.0001) // =======================================================
(PID.TID 0000.0001) // End MONITOR dynamic field statistics
(PID.TID 0000.0001) // =======================================================
(PID.TID 0000.0001) SOLVE_FOR_PRESSURE: putPmEinXvector =    F
 cg2d: Sum(rhs),rhsMax =   3.72529029846191E-09  1.59775201135660E+04
(PID.TID 0000.0001)      cg2d_init_res =   1.75956829843616E+03
(PID.TID 0000.0001)      cg2d_iters(min,last) =      -1      16
(PID.TID 0000.0001)      cg2d_last_res =   4.58207194232493E-11
(PID.TID 0000.0001) // =======================================================
(PID.TID 0000.0001) // Begin MONITOR dynamic field statistics
(PID.TID 0000.0001) // =======================================================
(PID.TID 0000.0001) %MON time_tsnumber                =                276481
(PID.TID 0000.0001) %MON time_secondsf                =   1.2441645000000E+08
(PID.TID 0000.0001) %MON dynstat_eta_max              =   2.5597845845814E+03
(PID.TID 0000.0001) %MON dynstat_eta_min              =  -3.4939394368679E+03
(PID.TID 0000.0001) %MON dynstat_eta_mean             =  -1.6708388092256E-13
(PID.TID 0000.0001) %MON dynstat_eta_sd               =   8.2302103368203E+02
(PID.TID 0000.0001) %MON dynstat_eta_del2             =   2.0848906024990E+00
(PID.TID 0000.0001) %MON dynstat_uvel_max             =   6.7213189559832E+01
(PID.TID 0000.0001) %MON dynstat_uvel_min             =  -6.6466314575841E+01
(PID.TID 0000.0001) %MON dynstat_uvel_mean            =   2.0482112152878E+00
(PID.TID 0000.0001) %MON dynstat_uvel_sd              =   1.1159135521238E+01
(PID.TID 0000.0001) %MON dynstat_uvel_del2            =   1.0721252914983E-02
(PID.TID 0000.0001) %MON dynstat_vvel_max             =   7.1908862714522E+01
(PID.TID 0000.0001) %MON dynstat_vvel_min             =  -6.8639094827810E+01
(PID.TID 0000.0001) %MON dynstat_vvel_mean            =   2.0122478833167E+00
(PID.TID 0000.0001) %MON dynstat_vvel_sd              =   1.1668699647452E+01
(PID.TID 0000.0001) %MON dynstat_vvel_del2            =   1.1017027456424E-02
(PID.TID 0000.0001) %MON dynstat_wvel_max             =   8.2394353142281E-01
(PID.TID 0000.0001) %MON dynstat_wvel_min             =  -6.5576433650088E-01
(PID.TID 0000.0001) %MON dynstat_wvel_mean            =   1.2310000703603E-17
(PID.TID 0000.0001) %MON dynstat_wvel_sd              =   6.5534529222795E-02
(PID.TID 0000.0001) %MON dynstat_wvel_del2            =   2.0602523810001E-04
(PID.TID 0000.0001) %MON dynstat_theta_max            =   5.9603047092135E+02
(PID.TID 0000.0001) %MON dynstat_theta_min            =   2.6186139259701E+02
(PID.TID 0000.0001) %MON dynstat_theta_mean           =   3.2766071549124E+02
(PID.TID 0000.0001) %MON dynstat_theta_sd             =   6.3757543866062E+01
(PID.TID 0000.0001) %MON dynstat_theta_del2           =   5.1661175620448E-03
(PID.TID 0000.0001) %MON dynstat_salt_max             =   0.0000000000000E+00
(PID.TID 0000.0001) %MON dynstat_salt_min             =   0.0000000000000E+00
(PID.TID 0000.0001) %MON dynstat_salt_mean            =   0.0000000000000E+00
(PID.TID 0000.0001) %MON dynstat_salt_sd              =   0.0000000000000E+00
(PID.TID 0000.0001) %MON dynstat_salt_del2            =   0.0000000000000E+00
(PID.TID 0000.0001) %MON advcfl_uvel_max              =   2.6844154766907E-01
(PID.TID 0000.0001) %MON advcfl_vvel_max              =   2.2658765997300E-01
(PID.TID 0000.0001) %MON advcfl_wvel_max              =   7.4154917828053E-02
(PID.TID 0000.0001) %MON advcfl_W_hf_max              =   7.3328810522297E-02
(PID.TID 0000.0001) %MON am_eta_mean                  =  -2.9374377934707E+09
(PID.TID 0000.0001) %MON am_uZo_mean                  =   2.8067871393774E+11
(PID.TID 0000.0001) %MON am_tot_mean                  =   2.7774127614427E+11
(PID.TID 0000.0001) %MON pe_b_mean                    =   2.8679653163513E+00
(PID.TID 0000.0001) %MON ke_max                       =   3.2595698330289E+03
(PID.TID 0000.0001) %MON ke_mean                      =   1.3442931515924E+02
(PID.TID 0000.0001) %MON ke_vol                       =   5.0990436378172E+19
(PID.TID 0000.0001) %MON vort_r_min                   =  -1.7792933767211E-04
(PID.TID 0000.0001) %MON vort_r_max                   =   2.2151972986085E-04
(PID.TID 0000.0001) %MON vort_a_mean                  =   6.1283879344628E-20
(PID.TID 0000.0001) %MON vort_a_sd                    =   8.8618432802437E-05
(PID.TID 0000.0001) %MON vort_p_mean                  =   5.8832487099273E-20
(PID.TID 0000.0001) %MON vort_p_sd                    =   8.8693885783139E-05
(PID.TID 0000.0001) %MON surfExpan_theta_mean         =   1.5795885946161E-04
(PID.TID 0000.0001) %MON surfExpan_salt_mean          =   0.0000000000000E+00
(PID.TID 0000.0001) %MON surfExpan_Heat_mean          =  -8.8320096116155E-02
(PID.TID 0000.0001) %MON En_Budget_T2PE_mean          =   1.0517434380477E+00
(PID.TID 0000.0001) // =======================================================
(PID.TID 0000.0001) // End MONITOR dynamic field statistics
(PID.TID 0000.0001) // =======================================================
 cg2d: Sum(rhs),rhsMax =   6.28642737865448E-09  1.58944198268730E+04
(PID.TID 0000.0001)      cg2d_init_res =   1.98604552297670E+03
(PID.TID 0000.0001)      cg2d_iters(min,last) =      -1      16
(PID.TID 0000.0001)      cg2d_last_res =   5.19547874393149E-11
(PID.TID 0000.0001) // =======================================================
(PID.TID 0000.0001) // Begin MONITOR dynamic field statistics
(PID.TID 0000.0001) // =======================================================
(PID.TID 0000.0001) %MON time_tsnumber                =                276482
(PID.TID 0000.0001) %MON time_secondsf                =   1.2441690000000E+08
(PID.TID 0000.0001) %MON dynstat_eta_max              =   2.5476643099503E+03
(PID.TID 0000.0001) %MON dynstat_eta_min              =  -3.4770900160088E+03
(PID.TID 0000.0001) %MON dynstat_eta_mean             =  -1.6065757781016E-13
(PID.TID 0000.0001) %MON dynstat_eta_sd               =   8.2042505052207E+02
(PID.TID 0000.0001) %MON dynstat_eta_del2             =   2.0590042529597E+00
(PID.TID 0000.0001) %MON dynstat_uvel_max             =   6.7208792255762E+01
(PID.TID 0000.0001) %MON dynstat_uvel_min             =  -6.6521653735911E+01
(PID.TID 0000.0001) %MON dynstat_uvel_mean            =   2.0477920935072E+00
(PID.TID 0000.0001) %MON dynstat_uvel_sd              =   1.1158132832437E+01
(PID.TID 0000.0001) %MON dynstat_uvel_del2            =   1.0720628300021E-02
(PID.TID 0000.0001) %MON dynstat_vvel_max             =   7.1938450606442E+01
(PID.TID 0000.0001) %MON dynstat_vvel_min             =  -6.8642442063224E+01
(PID.TID 0000.0001) %MON dynstat_vvel_mean            =   2.0112357252184E+00
(PID.TID 0000.0001) %MON dynstat_vvel_sd              =   1.1667346011034E+01
(PID.TID 0000.0001) %MON dynstat_vvel_del2            =   1.1014317552942E-02
(PID.TID 0000.0001) %MON dynstat_wvel_max             =   8.1390646323634E-01
(PID.TID 0000.0001) %MON dynstat_wvel_min             =  -6.6779926200020E-01
(PID.TID 0000.0001) %MON dynstat_wvel_mean            =   9.1721573869980E-18
(PID.TID 0000.0001) %MON dynstat_wvel_sd              =   6.5120768256993E-02
(PID.TID 0000.0001) %MON dynstat_wvel_del2            =   2.0583539620212E-04
(PID.TID 0000.0001) %MON dynstat_theta_max            =   5.9603109841639E+02
(PID.TID 0000.0001) %MON dynstat_theta_min            =   2.6186637206653E+02
(PID.TID 0000.0001) %MON dynstat_theta_mean           =   3.2766072575728E+02
(PID.TID 0000.0001) %MON dynstat_theta_sd             =   6.3757523919914E+01
(PID.TID 0000.0001) %MON dynstat_theta_del2           =   5.1664445138609E-03
(PID.TID 0000.0001) %MON dynstat_salt_max             =   0.0000000000000E+00
(PID.TID 0000.0001) %MON dynstat_salt_min             =   0.0000000000000E+00
(PID.TID 0000.0001) %MON dynstat_salt_mean            =   0.0000000000000E+00
(PID.TID 0000.0001) %MON dynstat_salt_sd              =   0.0000000000000E+00
(PID.TID 0000.0001) %MON dynstat_salt_del2            =   0.0000000000000E+00
(PID.TID 0000.0001) %MON advcfl_uvel_max              =   2.6866504930100E-01
(PID.TID 0000.0001) %MON advcfl_vvel_max              =   2.2652444711028E-01
(PID.TID 0000.0001) %MON advcfl_wvel_max              =   7.3251581691271E-02
(PID.TID 0000.0001) %MON advcfl_W_hf_max              =   7.2436616453319E-02
(PID.TID 0000.0001) %MON am_eta_mean                  =  -2.9402103954415E+09
(PID.TID 0000.0001) %MON am_uZo_mean                  =   2.8067482671362E+11
(PID.TID 0000.0001) %MON am_tot_mean                  =   2.7773461631818E+11
(PID.TID 0000.0001) %MON pe_b_mean                    =   2.8499015063013E+00
(PID.TID 0000.0001) %MON ke_max                       =   3.2582692727147E+03
(PID.TID 0000.0001) %MON ke_mean                      =   1.3439942620009E+02
(PID.TID 0000.0001) %MON ke_vol                       =   5.0990436378172E+19
(PID.TID 0000.0001) %MON vort_r_min                   =  -1.7812864841170E-04
(PID.TID 0000.0001) %MON vort_r_max                   =   2.2156201204636E-04
(PID.TID 0000.0001) %MON vort_a_mean                  =   2.2062196564066E-20
(PID.TID 0000.0001) %MON vort_a_sd                    =   8.8616677696222E-05
(PID.TID 0000.0001) %MON vort_p_mean                  =   2.4513536362078E-20
(PID.TID 0000.0001) %MON vort_p_sd                    =   8.8691873838187E-05
(PID.TID 0000.0001) %MON surfExpan_theta_mean         =   1.4954781959309E-03
(PID.TID 0000.0001) %MON surfExpan_salt_mean          =   0.0000000000000E+00
(PID.TID 0000.0001) %MON surfExpan_Heat_mean          =  -8.1823579949301E-03
(PID.TID 0000.0001) %MON En_Budget_T2PE_mean          =   9.5519075732637E-01
(PID.TID 0000.0001) // =======================================================
(PID.TID 0000.0001) // End MONITOR dynamic field statistics
(PID.TID 0000.0001) // =======================================================
 cg2d: Sum(rhs),rhsMax =   2.56113708019257E-09  1.57936655035747E+04
(PID.TID 0000.0001)      cg2d_init_res =   2.13807977741679E+03
(PID.TID 0000.0001)      cg2d_iters(min,last) =      -1      16
(PID.TID 0000.0001)      cg2d_last_res =   5.32675086165132E-11
(PID.TID 0000.0001) // =======================================================
(PID.TID 0000.0001) // Begin MONITOR dynamic field statistics
(PID.TID 0000.0001) // =======================================================
(PID.TID 0000.0001) %MON time_tsnumber                =                276483
(PID.TID 0000.0001) %MON time_secondsf                =   1.2441735000000E+08
(PID.TID 0000.0001) %MON dynstat_eta_max              =   2.5340947845402E+03
(PID.TID 0000.0001) %MON dynstat_eta_min              =  -3.4560009745348E+03
(PID.TID 0000.0001) %MON dynstat_eta_mean             =  -1.2209975913572E-13
(PID.TID 0000.0001) %MON dynstat_eta_sd               =   8.1706314370713E+02
(PID.TID 0000.0001) %MON dynstat_eta_del2             =   2.0353925911226E+00
(PID.TID 0000.0001) %MON dynstat_uvel_max             =   6.7198802936008E+01
(PID.TID 0000.0001) %MON dynstat_uvel_min             =  -6.6579589965013E+01
(PID.TID 0000.0001) %MON dynstat_uvel_mean            =   2.0473709136343E+00
(PID.TID 0000.0001) %MON dynstat_uvel_sd              =   1.1157268682651E+01
(PID.TID 0000.0001) %MON dynstat_uvel_del2            =   1.0719821548695E-02
(PID.TID 0000.0001) %MON dynstat_vvel_max             =   7.1973141962999E+01
(PID.TID 0000.0001) %MON dynstat_vvel_min             =  -6.8647751639408E+01
(PID.TID 0000.0001) %MON dynstat_vvel_mean            =   2.0102750707139E+00
(PID.TID 0000.0001) %MON dynstat_vvel_sd              =   1.1666136419727E+01
(PID.TID 0000.0001) %MON dynstat_vvel_del2            =   1.1011453877319E-02
(PID.TID 0000.0001) %MON dynstat_wvel_max             =   8.0603951489307E-01
(PID.TID 0000.0001) %MON dynstat_wvel_min             =  -6.7305518218898E-01
(PID.TID 0000.0001) %MON dynstat_wvel_mean            =  -7.3216344054107E-18
(PID.TID 0000.0001) %MON dynstat_wvel_sd              =   6.4787792035774E-02
(PID.TID 0000.0001) %MON dynstat_wvel_del2            =   2.0562702394633E-04
(PID.TID 0000.0001) %MON dynstat_theta_max            =   5.9603593681846E+02
(PID.TID 0000.0001) %MON dynstat_theta_min            =   2.6187208570119E+02
(PID.TID 0000.0001) %MON dynstat_theta_mean           =   3.2766074022485E+02
(PID.TID 0000.0001) %MON dynstat_theta_sd             =   6.3757502950892E+01
(PID.TID 0000.0001) %MON dynstat_theta_del2           =   5.1674062683620E-03
(PID.TID 0000.0001) %MON dynstat_salt_max             =   0.0000000000000E+00
(PID.TID 0000.0001) %MON dynstat_salt_min             =   0.0000000000000E+00
(PID.TID 0000.0001) %MON dynstat_salt_mean            =   0.0000000000000E+00
(PID.TID 0000.0001) %MON dynstat_salt_sd              =   0.0000000000000E+00
(PID.TID 0000.0001) %MON dynstat_salt_del2            =   0.0000000000000E+00
(PID.TID 0000.0001) %MON advcfl_uvel_max              =   2.6889903987360E-01
(PID.TID 0000.0001) %MON advcfl_vvel_max              =   2.2646989653708E-01
(PID.TID 0000.0001) %MON advcfl_wvel_max              =   7.2543556340377E-02
(PID.TID 0000.0001) %MON advcfl_W_hf_max              =   7.1904284786951E-02
(PID.TID 0000.0001) %MON am_eta_mean                  =  -2.9425411673745E+09
(PID.TID 0000.0001) %MON am_uZo_mean                  =   2.8067049154543E+11
(PID.TID 0000.0001) %MON am_tot_mean                  =   2.7772795037805E+11
(PID.TID 0000.0001) %MON pe_b_mean                    =   2.8265929231515E+00
(PID.TID 0000.0001) %MON ke_max                       =   3.2562335612551E+03
(PID.TID 0000.0001) %MON ke_mean                      =   1.3437286733247E+02
(PID.TID 0000.0001) %MON ke_vol                       =   5.0990436378173E+19
(PID.TID 0000.0001) %MON vort_r_min                   =  -1.7828483099844E-04
(PID.TID 0000.0001) %MON vort_r_max                   =   2.2158152210542E-04
(PID.TID 0000.0001) %MON vort_a_mean                  =   9.8054206951405E-20
(PID.TID 0000.0001) %MON vort_a_sd                    =   8.8614897566243E-05
(PID.TID 0000.0001) %MON vort_p_mean                  =   9.5602792284466E-20
(PID.TID 0000.0001) %MON vort_p_sd                    =   8.8689687251045E-05
(PID.TID 0000.0001) %MON surfExpan_theta_mean         =   2.2347523417704E-03
(PID.TID 0000.0001) %MON surfExpan_salt_mean          =   0.0000000000000E+00
(PID.TID 0000.0001) %MON surfExpan_Heat_mean          =   1.9567066733240E-02
(PID.TID 0000.0001) %MON En_Budget_T2PE_mean          =   8.5842105983634E-01
(PID.TID 0000.0001) // =======================================================
(PID.TID 0000.0001) // End MONITOR dynamic field statistics
(PID.TID 0000.0001) // =======================================================
 cg2d: Sum(rhs),rhsMax =   4.88944351673126E-09  1.56883433182849E+04
(PID.TID 0000.0001)      cg2d_init_res =   2.21575698432898E+03
(PID.TID 0000.0001)      cg2d_iters(min,last) =      -1      16
(PID.TID 0000.0001)      cg2d_last_res =   5.39307883513930E-11
(PID.TID 0000.0001) // =======================================================
(PID.TID 0000.0001) // Begin MONITOR dynamic field statistics
(PID.TID 0000.0001) // =======================================================
(PID.TID 0000.0001) %MON time_tsnumber                =                276484
(PID.TID 0000.0001) %MON time_secondsf                =   1.2441780000000E+08
(PID.TID 0000.0001) %MON dynstat_eta_max              =   2.5216824566150E+03
(PID.TID 0000.0001) %MON dynstat_eta_min              =  -3.4334164428553E+03
(PID.TID 0000.0001) %MON dynstat_eta_mean             =  -2.2492060893422E-13
(PID.TID 0000.0001) %MON dynstat_eta_sd               =   8.1317575722287E+02
(PID.TID 0000.0001) %MON dynstat_eta_del2             =   2.0191876543159E+00
(PID.TID 0000.0001) %MON dynstat_uvel_max             =   6.7182787508627E+01
(PID.TID 0000.0001) %MON dynstat_uvel_min             =  -6.6639104578934E+01
(PID.TID 0000.0001) %MON dynstat_uvel_mean            =   2.0469401799882E+00
(PID.TID 0000.0001) %MON dynstat_uvel_sd              =   1.1156477604961E+01
(PID.TID 0000.0001) %MON dynstat_uvel_del2            =   1.0718761027832E-02
(PID.TID 0000.0001) %MON dynstat_vvel_max             =   7.2013208722364E+01
(PID.TID 0000.0001) %MON dynstat_vvel_min             =  -6.8657787474666E+01
(PID.TID 0000.0001) %MON dynstat_vvel_mean            =   2.0093661901834E+00
(PID.TID 0000.0001) %MON dynstat_vvel_sd              =   1.1665021707929E+01
(PID.TID 0000.0001) %MON dynstat_vvel_del2            =   1.1008277321665E-02
(PID.TID 0000.0001) %MON dynstat_wvel_max             =   8.0303444224713E-01
(PID.TID 0000.0001) %MON dynstat_wvel_min             =  -6.7657191255943E-01
(PID.TID 0000.0001) %MON dynstat_wvel_mean            =  -1.0861765326708E-18
(PID.TID 0000.0001) %MON dynstat_wvel_sd              =   6.4528049501632E-02
(PID.TID 0000.0001) %MON dynstat_wvel_del2            =   2.0546922134660E-04
(PID.TID 0000.0001) %MON dynstat_theta_max            =   5.9604430134457E+02
(PID.TID 0000.0001) %MON dynstat_theta_min            =   2.6187851431599E+02
(PID.TID 0000.0001) %MON dynstat_theta_mean           =   3.2766075882864E+02
(PID.TID 0000.0001) %MON dynstat_theta_sd             =   6.3757481415800E+01
(PID.TID 0000.0001) %MON dynstat_theta_del2           =   5.1688753999835E-03
(PID.TID 0000.0001) %MON dynstat_salt_max             =   0.0000000000000E+00
(PID.TID 0000.0001) %MON dynstat_salt_min             =   0.0000000000000E+00
(PID.TID 0000.0001) %MON dynstat_salt_mean            =   0.0000000000000E+00
(PID.TID 0000.0001) %MON dynstat_salt_sd              =   0.0000000000000E+00
(PID.TID 0000.0001) %MON dynstat_salt_del2            =   0.0000000000000E+00
(PID.TID 0000.0001) %MON advcfl_uvel_max              =   2.6913940516497E-01
(PID.TID 0000.0001) %MON advcfl_vvel_max              =   2.2640600928197E-01
(PID.TID 0000.0001) %MON advcfl_wvel_max              =   7.2273099802242E-02
(PID.TID 0000.0001) %MON advcfl_W_hf_max              =   7.1638243945414E-02
(PID.TID 0000.0001) %MON am_eta_mean                  =  -2.9444544639733E+09
(PID.TID 0000.0001) %MON am_uZo_mean                  =   2.8066574699087E+11
(PID.TID 0000.0001) %MON am_tot_mean                  =   2.7772129252690E+11
(PID.TID 0000.0001) %MON pe_b_mean                    =   2.7997604317774E+00
(PID.TID 0000.0001) %MON ke_max                       =   3.2533473086033E+03
(PID.TID 0000.0001) %MON ke_mean                      =   1.3434831979124E+02
(PID.TID 0000.0001) %MON ke_vol                       =   5.0990436378172E+19
(PID.TID 0000.0001) %MON vort_r_min                   =  -1.7839853897958E-04
(PID.TID 0000.0001) %MON vort_r_max                   =   2.2157705255847E-04
(PID.TID 0000.0001) %MON vort_a_mean                  =   3.1867617259207E-20
(PID.TID 0000.0001) %MON vort_a_sd                    =   8.8613055835206E-05
(PID.TID 0000.0001) %MON vort_p_mean                  =   3.1867597616592E-20
(PID.TID 0000.0001) %MON vort_p_sd                    =   8.8687341826351E-05
(PID.TID 0000.0001) %MON surfExpan_theta_mean         =   2.3820334812641E-03
(PID.TID 0000.0001) %MON surfExpan_salt_mean          =   0.0000000000000E+00
(PID.TID 0000.0001) %MON surfExpan_Heat_mean          =  -2.1609231490710E-03
(PID.TID 0000.0001) %MON En_Budget_T2PE_mean          =   7.6303907444916E-01
(PID.TID 0000.0001) // =======================================================
(PID.TID 0000.0001) // End MONITOR dynamic field statistics
(PID.TID 0000.0001) // =======================================================
 cg2d: Sum(rhs),rhsMax =   5.58793544769287E-09  1.55883268830575E+04
(PID.TID 0000.0001)      cg2d_init_res =   2.24861804947162E+03
(PID.TID 0000.0001)      cg2d_iters(min,last) =      -1      16
(PID.TID 0000.0001)      cg2d_last_res =   5.50083175387044E-11
(PID.TID 0000.0001) // =======================================================
(PID.TID 0000.0001) // Begin MONITOR dynamic field statistics
(PID.TID 0000.0001) // =======================================================
(PID.TID 0000.0001) %MON time_tsnumber                =                276485
(PID.TID 0000.0001) %MON time_secondsf                =   1.2441825000000E+08
(PID.TID 0000.0001) %MON dynstat_eta_max              =   2.5076652294399E+03
(PID.TID 0000.0001) %MON dynstat_eta_min              =  -3.4115861568786E+03
(PID.TID 0000.0001) %MON dynstat_eta_mean             =  -9.6394546686094E-14
(PID.TID 0000.0001) %MON dynstat_eta_sd               =   8.0898980037808E+02
(PID.TID 0000.0001) %MON dynstat_eta_del2             =   2.0123281787431E+00
(PID.TID 0000.0001) %MON dynstat_uvel_max             =   6.7161549795167E+01
(PID.TID 0000.0001) %MON dynstat_uvel_min             =  -6.6697129351009E+01
(PID.TID 0000.0001) %MON dynstat_uvel_mean            =   2.0464950155534E+00
(PID.TID 0000.0001) %MON dynstat_uvel_sd              =   1.1155693470606E+01
(PID.TID 0000.0001) %MON dynstat_uvel_del2            =   1.0717399227239E-02
(PID.TID 0000.0001) %MON dynstat_vvel_max             =   7.2057689633907E+01
(PID.TID 0000.0001) %MON dynstat_vvel_min             =  -6.8674462074132E+01
(PID.TID 0000.0001) %MON dynstat_vvel_mean            =   2.0085058573065E+00
(PID.TID 0000.0001) %MON dynstat_vvel_sd              =   1.1663956104581E+01
(PID.TID 0000.0001) %MON dynstat_vvel_del2            =   1.1004751544861E-02
(PID.TID 0000.0001) %MON dynstat_wvel_max             =   7.9989854639926E-01
(PID.TID 0000.0001) %MON dynstat_wvel_min             =  -6.7938311335854E-01
(PID.TID 0000.0001) %MON dynstat_wvel_mean            =   8.8503273032437E-19
(PID.TID 0000.0001) %MON dynstat_wvel_sd              =   6.4332856708892E-02
(PID.TID 0000.0001) %MON dynstat_wvel_del2            =   2.0541143495149E-04
(PID.TID 0000.0001) %MON dynstat_theta_max            =   5.9605712249930E+02
(PID.TID 0000.0001) %MON dynstat_theta_min            =   2.6188563742274E+02
(PID.TID 0000.0001) %MON dynstat_theta_mean           =   3.2766078098208E+02
(PID.TID 0000.0001) %MON dynstat_theta_sd             =   6.3757460069516E+01
(PID.TID 0000.0001) %MON dynstat_theta_del2           =   5.1706620915775E-03
(PID.TID 0000.0001) %MON dynstat_salt_max             =   0.0000000000000E+00
(PID.TID 0000.0001) %MON dynstat_salt_min             =   0.0000000000000E+00
(PID.TID 0000.0001) %MON dynstat_salt_mean            =   0.0000000000000E+00
(PID.TID 0000.0001) %MON dynstat_salt_sd              =   0.0000000000000E+00
(PID.TID 0000.0001) %MON dynstat_salt_del2            =   0.0000000000000E+00
(PID.TID 0000.0001) %MON advcfl_uvel_max              =   2.6937375334147E-01
(PID.TID 0000.0001) %MON advcfl_vvel_max              =   2.2633168011950E-01
(PID.TID 0000.0001) %MON advcfl_wvel_max              =   7.1990869175933E-02
(PID.TID 0000.0001) %MON advcfl_W_hf_max              =   7.1361097062113E-02
(PID.TID 0000.0001) %MON am_eta_mean                  =  -2.9459804569148E+09
(PID.TID 0000.0001) %MON am_uZo_mean                  =   2.8066063287791E+11
(PID.TID 0000.0001) %MON am_tot_mean                  =   2.7771465242100E+11
(PID.TID 0000.0001) %MON pe_b_mean                    =   2.7710101603824E+00
(PID.TID 0000.0001) %MON ke_max                       =   3.2495652018669E+03
(PID.TID 0000.0001) %MON ke_mean                      =   1.3432449544426E+02
(PID.TID 0000.0001) %MON ke_vol                       =   5.0990436378172E+19
(PID.TID 0000.0001) %MON vort_r_min                   =  -1.7847041898710E-04
(PID.TID 0000.0001) %MON vort_r_max                   =   2.2154777275390E-04
(PID.TID 0000.0001) %MON vort_a_mean                  =   8.0894720734909E-20
(PID.TID 0000.0001) %MON vort_a_sd                    =   8.8611125562487E-05
(PID.TID 0000.0001) %MON vort_p_mean                  =   8.3346025025791E-20
(PID.TID 0000.0001) %MON vort_p_sd                    =   8.8684862095823E-05
(PID.TID 0000.0001) %MON surfExpan_theta_mean         =   2.0180504737353E-03
(PID.TID 0000.0001) %MON surfExpan_salt_mean          =   0.0000000000000E+00
(PID.TID 0000.0001) %MON surfExpan_Heat_mean          =  -6.3896561749832E-02
(PID.TID 0000.0001) %MON En_Budget_T2PE_mean          =   6.7111003776556E-01
(PID.TID 0000.0001) // =======================================================
(PID.TID 0000.0001) // End MONITOR dynamic field statistics
(PID.TID 0000.0001) // =======================================================
 Compute Stats, Diag. #     23  ETAN      vol(   0 ): 5.099E+14  Parms: SM      M1      
 Compute Stats, Diag. #     29  UVEL      vol(   0 ): 5.099E+19  Parms: UUR     MR      
 Compute Stats, Diag. #     30  VVEL      vol(   0 ): 5.099E+19  Parms: VVR     MR      
 Compute Stats, Diag. #     31  WVEL      vol(   0 ): 4.972E+19  Parms: WM      LR      
 Compute Stats, Diag. #     26  THETA     vol(   0 ): 5.099E+19  Parms: SMR     MR      
 cg2d: Sum(rhs),rhsMax =   5.12227416038513E-09  1.55009887822930E+04
(PID.TID 0000.0001)      cg2d_init_res =   2.26621044355940E+03
(PID.TID 0000.0001)      cg2d_iters(min,last) =      -1      16
(PID.TID 0000.0001)      cg2d_last_res =   5.56224150459197E-11
(PID.TID 0000.0001) // =======================================================
(PID.TID 0000.0001) // Begin MONITOR dynamic field statistics
(PID.TID 0000.0001) // =======================================================
(PID.TID 0000.0001) %MON time_tsnumber                =                276486
(PID.TID 0000.0001) %MON time_secondsf                =   1.2441870000000E+08
(PID.TID 0000.0001) %MON dynstat_eta_max              =   2.4928771406250E+03
(PID.TID 0000.0001) %MON dynstat_eta_min              =  -3.3922514824842E+03
(PID.TID 0000.0001) %MON dynstat_eta_mean             =  -1.5423127469775E-13
(PID.TID 0000.0001) %MON dynstat_eta_sd               =   8.0470592038710E+02
(PID.TID 0000.0001) %MON dynstat_eta_del2             =   2.0143367144148E+00
(PID.TID 0000.0001) %MON dynstat_uvel_max             =   6.7136766158251E+01
(PID.TID 0000.0001) %MON dynstat_uvel_min             =  -6.6752918837671E+01
(PID.TID 0000.0001) %MON dynstat_uvel_mean            =   2.0460339453726E+00
(PID.TID 0000.0001) %MON dynstat_uvel_sd              =   1.1154856222698E+01
(PID.TID 0000.0001) %MON dynstat_uvel_del2            =   1.0715753092806E-02
(PID.TID 0000.0001) %MON dynstat_vvel_max             =   7.2104699406311E+01
(PID.TID 0000.0001) %MON dynstat_vvel_min             =  -6.8698060131538E+01
(PID.TID 0000.0001) %MON dynstat_vvel_mean            =   2.0076874712293E+00
(PID.TID 0000.0001) %MON dynstat_vvel_sd              =   1.1662898037438E+01
(PID.TID 0000.0001) %MON dynstat_vvel_del2            =   1.1000915143070E-02
(PID.TID 0000.0001) %MON dynstat_wvel_max             =   7.9669308420312E-01
(PID.TID 0000.0001) %MON dynstat_wvel_min             =  -6.8154087657145E-01
(PID.TID 0000.0001) %MON dynstat_wvel_mean            =  -5.0285950586612E-18
(PID.TID 0000.0001) %MON dynstat_wvel_sd              =   6.4193808767511E-02
(PID.TID 0000.0001) %MON dynstat_wvel_del2            =   2.0543397960148E-04
(PID.TID 0000.0001) %MON dynstat_theta_max            =   5.9622993018189E+02
(PID.TID 0000.0001) %MON dynstat_theta_min            =   2.6189343972558E+02
(PID.TID 0000.0001) %MON dynstat_theta_mean           =   3.2766080575934E+02
(PID.TID 0000.0001) %MON dynstat_theta_sd             =   6.3757439693535E+01
(PID.TID 0000.0001) %MON dynstat_theta_del2           =   5.1725727260736E-03
(PID.TID 0000.0001) %MON dynstat_salt_max             =   0.0000000000000E+00
(PID.TID 0000.0001) %MON dynstat_salt_min             =   0.0000000000000E+00
(PID.TID 0000.0001) %MON dynstat_salt_mean            =   0.0000000000000E+00
(PID.TID 0000.0001) %MON dynstat_salt_sd              =   0.0000000000000E+00
(PID.TID 0000.0001) %MON dynstat_salt_del2            =   0.0000000000000E+00
(PID.TID 0000.0001) %MON advcfl_uvel_max              =   2.6959907373479E-01
(PID.TID 0000.0001) %MON advcfl_vvel_max              =   2.2624655887457E-01
(PID.TID 0000.0001) %MON advcfl_wvel_max              =   7.1702377578281E-02
(PID.TID 0000.0001) %MON advcfl_W_hf_max              =   7.1078096929506E-02
(PID.TID 0000.0001) %MON am_eta_mean                  =  -2.9471544085227E+09
(PID.TID 0000.0001) %MON am_uZo_mean                  =   2.8065518831597E+11
(PID.TID 0000.0001) %MON am_tot_mean                  =   2.7770803390744E+11
(PID.TID 0000.0001) %MON pe_b_mean                    =   2.7417409524978E+00
(PID.TID 0000.0001) %MON ke_max                       =   3.2449303682381E+03
(PID.TID 0000.0001) %MON ke_mean                      =   1.3430022306713E+02
(PID.TID 0000.0001) %MON ke_vol                       =   5.0990436378172E+19
(PID.TID 0000.0001) %MON vort_r_min                   =  -1.7850081703487E-04
(PID.TID 0000.0001) %MON vort_r_max                   =   2.2149321796243E-04
(PID.TID 0000.0001) %MON vort_a_mean                  =   9.5602851777620E-20
(PID.TID 0000.0001) %MON vort_a_sd                    =   8.8609092180624E-05
(PID.TID 0000.0001) %MON vort_p_mean                  =   1.0050550128780E-19
(PID.TID 0000.0001) %MON vort_p_sd                    =   8.8682277706820E-05
(PID.TID 0000.0001) %MON surfExpan_theta_mean         =   1.2719184698384E-03
(PID.TID 0000.0001) %MON surfExpan_salt_mean          =   0.0000000000000E+00
(PID.TID 0000.0001) %MON surfExpan_Heat_mean          =  -1.5244266096219E-01
(PID.TID 0000.0001) %MON En_Budget_T2PE_mean          =   5.8474248056115E-01
(PID.TID 0000.0001) // =======================================================
(PID.TID 0000.0001) // End MONITOR dynamic field statistics
(PID.TID 0000.0001) // =======================================================
 cg2d: Sum(rhs),rhsMax =   4.42378222942352E-09  1.54315753983993E+04
(PID.TID 0000.0001)      cg2d_init_res =   2.28474923297801E+03
(PID.TID 0000.0001)      cg2d_iters(min,last) =      -1      16
(PID.TID 0000.0001)      cg2d_last_res =   5.59336761524876E-11
(PID.TID 0000.0001) // =======================================================
(PID.TID 0000.0001) // Begin MONITOR dynamic field statistics
(PID.TID 0000.0001) // =======================================================
(PID.TID 0000.0001) %MON time_tsnumber                =                276487
(PID.TID 0000.0001) %MON time_secondsf                =   1.2441915000000E+08
(PID.TID 0000.0001) %MON dynstat_eta_max              =   2.4807192996344E+03
(PID.TID 0000.0001) %MON dynstat_eta_min              =  -3.3766620405554E+03
(PID.TID 0000.0001) %MON dynstat_eta_mean             =  -2.1206800270941E-13
(PID.TID 0000.0001) %MON dynstat_eta_sd               =   8.0049233021787E+02
(PID.TID 0000.0001) %MON dynstat_eta_del2             =   2.0232910776547E+00
(PID.TID 0000.0001) %MON dynstat_uvel_max             =   6.7110495738380E+01
(PID.TID 0000.0001) %MON dynstat_uvel_min             =  -6.6807014621190E+01
(PID.TID 0000.0001) %MON dynstat_uvel_mean            =   2.0455587506923E+00
(PID.TID 0000.0001) %MON dynstat_uvel_sd              =   1.1153915489971E+01
(PID.TID 0000.0001) %MON dynstat_uvel_del2            =   1.0713880972029E-02
(PID.TID 0000.0001) %MON dynstat_vvel_max             =   7.2151878379303E+01
(PID.TID 0000.0001) %MON dynstat_vvel_min             =  -6.8728633548612E+01
(PID.TID 0000.0001) %MON dynstat_vvel_mean            =   2.0069013130909E+00
(PID.TID 0000.0001) %MON dynstat_vvel_sd              =   1.1661810438966E+01
(PID.TID 0000.0001) %MON dynstat_vvel_del2            =   1.0996855301698E-02
(PID.TID 0000.0001) %MON dynstat_wvel_max             =   7.9346755732326E-01
(PID.TID 0000.0001) %MON dynstat_wvel_min             =  -6.8300576514441E-01
(PID.TID 0000.0001) %MON dynstat_wvel_mean            =   2.0918955444031E-18
(PID.TID 0000.0001) %MON dynstat_wvel_sd              =   6.4103793478942E-02
(PID.TID 0000.0001) %MON dynstat_wvel_del2            =   2.0552248740352E-04
(PID.TID 0000.0001) %MON dynstat_theta_max            =   5.9640595645570E+02
(PID.TID 0000.0001) %MON dynstat_theta_min            =   2.6190191316679E+02
(PID.TID 0000.0001) %MON dynstat_theta_mean           =   3.2766083209116E+02
(PID.TID 0000.0001) %MON dynstat_theta_sd             =   6.3757420944976E+01
(PID.TID 0000.0001) %MON dynstat_theta_del2           =   5.1744284965490E-03
(PID.TID 0000.0001) %MON dynstat_salt_max             =   0.0000000000000E+00
(PID.TID 0000.0001) %MON dynstat_salt_min             =   0.0000000000000E+00
(PID.TID 0000.0001) %MON dynstat_salt_mean            =   0.0000000000000E+00
(PID.TID 0000.0001) %MON dynstat_salt_sd              =   0.0000000000000E+00
(PID.TID 0000.0001) %MON dynstat_salt_del2            =   0.0000000000000E+00
(PID.TID 0000.0001) %MON advcfl_uvel_max              =   2.6981755366621E-01
(PID.TID 0000.0001) %MON advcfl_vvel_max              =   2.2614946031782E-01
(PID.TID 0000.0001) %MON advcfl_wvel_max              =   7.1412080159093E-02
(PID.TID 0000.0001) %MON advcfl_W_hf_max              =   7.0793468155148E-02
(PID.TID 0000.0001) %MON am_eta_mean                  =  -2.9480157666407E+09
(PID.TID 0000.0001) %MON am_uZo_mean                  =   2.8064945060968E+11
(PID.TID 0000.0001) %MON am_tot_mean                  =   2.7770143484304E+11
(PID.TID 0000.0001) %MON pe_b_mean                    =   2.7131035913942E+00
(PID.TID 0000.0001) %MON ke_max                       =   3.2395625282307E+03
(PID.TID 0000.0001) %MON ke_mean                      =   1.3427449254238E+02
(PID.TID 0000.0001) %MON ke_vol                       =   5.0990436378172E+19
(PID.TID 0000.0001) %MON vort_r_min                   =  -1.7848961932193E-04
(PID.TID 0000.0001) %MON vort_r_max                   =   2.2141328755333E-04
(PID.TID 0000.0001) %MON vort_a_mean                  =   4.9027103475702E-20
(PID.TID 0000.0001) %MON vort_a_sd                    =   8.8606953170410E-05
(PID.TID 0000.0001) %MON vort_p_mean                  =   4.9027074004704E-20
(PID.TID 0000.0001) %MON vort_p_sd                    =   8.8679619769397E-05
(PID.TID 0000.0001) %MON surfExpan_theta_mean         =   2.9315492276889E-04
(PID.TID 0000.0001) %MON surfExpan_salt_mean          =   0.0000000000000E+00
(PID.TID 0000.0001) %MON surfExpan_Heat_mean          =  -2.5353568033412E-01
(PID.TID 0000.0001) %MON En_Budget_T2PE_mean          =   5.0582033523283E-01
(PID.TID 0000.0001) // =======================================================
(PID.TID 0000.0001) // End MONITOR dynamic field statistics
(PID.TID 0000.0001) // =======================================================
 cg2d: Sum(rhs),rhsMax =   4.65661287307739E-09  1.53833310895626E+04
(PID.TID 0000.0001)      cg2d_init_res =   2.30768695893434E+03
(PID.TID 0000.0001)      cg2d_iters(min,last) =      -1      16
(PID.TID 0000.0001)      cg2d_last_res =   5.54248816665247E-11
(PID.TID 0000.0001) // =======================================================
(PID.TID 0000.0001) // Begin MONITOR dynamic field statistics
(PID.TID 0000.0001) // =======================================================
(PID.TID 0000.0001) %MON time_tsnumber                =                276488
(PID.TID 0000.0001) %MON time_secondsf                =   1.2441960000000E+08
(PID.TID 0000.0001) %MON dynstat_eta_max              =   2.4695239603681E+03
(PID.TID 0000.0001) %MON dynstat_eta_min              =  -3.3655931465712E+03
(PID.TID 0000.0001) %MON dynstat_eta_mean             =  -1.8636279025978E-13
(PID.TID 0000.0001) %MON dynstat_eta_sd               =   7.9648304823719E+02
(PID.TID 0000.0001) %MON dynstat_eta_del2             =   2.0366831087294E+00
(PID.TID 0000.0001) %MON dynstat_uvel_max             =   6.7084721378238E+01
(PID.TID 0000.0001) %MON dynstat_uvel_min             =  -6.6859514805556E+01
(PID.TID 0000.0001) %MON dynstat_uvel_mean            =   2.0450735851084E+00
(PID.TID 0000.0001) %MON dynstat_uvel_sd              =   1.1152832118014E+01
(PID.TID 0000.0001) %MON dynstat_uvel_del2            =   1.0711853467733E-02
(PID.TID 0000.0001) %MON dynstat_vvel_max             =   7.2196851004233E+01
(PID.TID 0000.0001) %MON dynstat_vvel_min             =  -6.8766098382016E+01
(PID.TID 0000.0001) %MON dynstat_vvel_mean            =   2.0061354334721E+00
(PID.TID 0000.0001) %MON dynstat_vvel_sd              =   1.1660660592163E+01
(PID.TID 0000.0001) %MON dynstat_vvel_del2            =   1.0992670635288E-02
(PID.TID 0000.0001) %MON dynstat_wvel_max             =   7.9025566997718E-01
(PID.TID 0000.0001) %MON dynstat_wvel_min             =  -6.8367672292732E-01
(PID.TID 0000.0001) %MON dynstat_wvel_mean            =   7.0802618425950E-18
(PID.TID 0000.0001) %MON dynstat_wvel_sd              =   6.4056873087374E-02
(PID.TID 0000.0001) %MON dynstat_wvel_del2            =   2.0566587759920E-04
(PID.TID 0000.0001) %MON dynstat_theta_max            =   5.9656939183109E+02
(PID.TID 0000.0001) %MON dynstat_theta_min            =   2.6191105622766E+02
(PID.TID 0000.0001) %MON dynstat_theta_mean           =   3.2766085893312E+02
(PID.TID 0000.0001) %MON dynstat_theta_sd             =   6.3757404283620E+01
(PID.TID 0000.0001) %MON dynstat_theta_del2           =   5.1760839644947E-03
(PID.TID 0000.0001) %MON dynstat_salt_max             =   0.0000000000000E+00
(PID.TID 0000.0001) %MON dynstat_salt_min             =   0.0000000000000E+00
(PID.TID 0000.0001) %MON dynstat_salt_mean            =   0.0000000000000E+00
(PID.TID 0000.0001) %MON dynstat_salt_sd              =   0.0000000000000E+00
(PID.TID 0000.0001) %MON dynstat_salt_del2            =   0.0000000000000E+00
(PID.TID 0000.0001) %MON advcfl_uvel_max              =   2.7002958935428E-01
(PID.TID 0000.0001) %MON advcfl_vvel_max              =   2.2603996230151E-01
(PID.TID 0000.0001) %MON advcfl_wvel_max              =   7.1123010297946E-02
(PID.TID 0000.0001) %MON advcfl_W_hf_max              =   7.0510072190076E-02
(PID.TID 0000.0001) %MON am_eta_mean                  =  -2.9486074192870E+09
(PID.TID 0000.0001) %MON am_uZo_mean                  =   2.8064345582102E+11
(PID.TID 0000.0001) %MON am_tot_mean                  =   2.7769484840173E+11
(PID.TID 0000.0001) %MON pe_b_mean                    =   2.6859943822281E+00
(PID.TID 0000.0001) %MON ke_max                       =   3.2382963763531E+03
(PID.TID 0000.0001) %MON ke_mean                      =   1.3424647036130E+02
(PID.TID 0000.0001) %MON ke_vol                       =   5.0990436378172E+19
(PID.TID 0000.0001) %MON vort_r_min                   =  -1.7843621420202E-04
(PID.TID 0000.0001) %MON vort_r_max                   =   2.2130823290835E-04
(PID.TID 0000.0001) %MON vort_a_mean                  =   7.3540655213554E-21
(PID.TID 0000.0001) %MON vort_a_sd                    =   8.8604715771865E-05
(PID.TID 0000.0001) %MON vort_p_mean                  =   7.3540611239748E-21
(PID.TID 0000.0001) %MON vort_p_sd                    =   8.8676917940668E-05
(PID.TID 0000.0001) %MON surfExpan_theta_mean         =  -7.7220631407141E-04
(PID.TID 0000.0001) %MON surfExpan_salt_mean          =   0.0000000000000E+00
(PID.TID 0000.0001) %MON surfExpan_Heat_mean          =  -3.5392982391147E-01
(PID.TID 0000.0001) %MON En_Budget_T2PE_mean          =   4.3583725830790E-01
(PID.TID 0000.0001) // =======================================================
(PID.TID 0000.0001) // End MONITOR dynamic field statistics
(PID.TID 0000.0001) // =======================================================
 cg2d: Sum(rhs),rhsMax =   4.19095158576965E-09  1.53848562144830E+04
(PID.TID 0000.0001)      cg2d_init_res =   2.33168257692452E+03
(PID.TID 0000.0001)      cg2d_iters(min,last) =      -1      16
(PID.TID 0000.0001)      cg2d_last_res =   5.45684811603873E-11
(PID.TID 0000.0001) // =======================================================
(PID.TID 0000.0001) // Begin MONITOR dynamic field statistics
(PID.TID 0000.0001) // =======================================================
(PID.TID 0000.0001) %MON time_tsnumber                =                276489
(PID.TID 0000.0001) %MON time_secondsf                =   1.2442005000000E+08
(PID.TID 0000.0001) %MON dynstat_eta_max              =   2.4592991606615E+03
(PID.TID 0000.0001) %MON dynstat_eta_min              =  -3.3593673559241E+03
(PID.TID 0000.0001) %MON dynstat_eta_mean             =  -1.9278909337219E-14
(PID.TID 0000.0001) %MON dynstat_eta_sd               =   7.9277914892970E+02
(PID.TID 0000.0001) %MON dynstat_eta_del2             =   2.0520452833325E+00
(PID.TID 0000.0001) %MON dynstat_uvel_max             =   6.7061029105123E+01
(PID.TID 0000.0001) %MON dynstat_uvel_min             =  -6.6909521999294E+01
(PID.TID 0000.0001) %MON dynstat_uvel_mean            =   2.0445837572477E+00
(PID.TID 0000.0001) %MON dynstat_uvel_sd              =   1.1151578393241E+01
(PID.TID 0000.0001) %MON dynstat_uvel_del2            =   1.0709737784675E-02
(PID.TID 0000.0001) %MON dynstat_vvel_max             =   7.2237580172599E+01
(PID.TID 0000.0001) %MON dynstat_vvel_min             =  -6.8809705818946E+01
(PID.TID 0000.0001) %MON dynstat_vvel_mean            =   2.0053769059235E+00
(PID.TID 0000.0001) %MON dynstat_vvel_sd              =   1.1659419900135E+01
(PID.TID 0000.0001) %MON dynstat_vvel_del2            =   1.0988444969010E-02
(PID.TID 0000.0001) %MON dynstat_wvel_max             =   7.8707523187391E-01
(PID.TID 0000.0001) %MON dynstat_wvel_min             =  -6.8352281192785E-01
(PID.TID 0000.0001) %MON dynstat_wvel_mean            =  -1.1143366649993E-17
(PID.TID 0000.0001) %MON dynstat_wvel_sd              =   6.4047851374445E-02
(PID.TID 0000.0001) %MON dynstat_wvel_del2            =   2.0584848520699E-04
(PID.TID 0000.0001) %MON dynstat_theta_max            =   5.9671754484288E+02
(PID.TID 0000.0001) %MON dynstat_theta_min            =   2.6192087149431E+02
(PID.TID 0000.0001) %MON dynstat_theta_mean           =   3.2766088538718E+02
(PID.TID 0000.0001) %MON dynstat_theta_sd             =   6.3757389955032E+01
(PID.TID 0000.0001) %MON dynstat_theta_del2           =   5.1774370110976E-03
(PID.TID 0000.0001) %MON dynstat_salt_max             =   0.0000000000000E+00
(PID.TID 0000.0001) %MON dynstat_salt_min             =   0.0000000000000E+00
(PID.TID 0000.0001) %MON dynstat_salt_mean            =   0.0000000000000E+00
(PID.TID 0000.0001) %MON dynstat_salt_sd              =   0.0000000000000E+00
(PID.TID 0000.0001) %MON dynstat_salt_del2            =   0.0000000000000E+00
(PID.TID 0000.0001) %MON advcfl_uvel_max              =   2.7023155644945E-01
(PID.TID 0000.0001) %MON advcfl_vvel_max              =   2.2591924608172E-01
(PID.TID 0000.0001) %MON advcfl_wvel_max              =   7.0836770868652E-02
(PID.TID 0000.0001) %MON advcfl_W_hf_max              =   7.0229390112613E-02
(PID.TID 0000.0001) %MON am_eta_mean                  =  -2.9489751629789E+09
(PID.TID 0000.0001) %MON am_uZo_mean                  =   2.8063724041769E+11
(PID.TID 0000.0001) %MON am_tot_mean                  =   2.7768826525472E+11
(PID.TID 0000.0001) %MON pe_b_mean                    =   2.6610710130347E+00
(PID.TID 0000.0001) %MON ke_max                       =   3.2365622483806E+03
(PID.TID 0000.0001) %MON ke_mean                      =   1.3421549955459E+02
(PID.TID 0000.0001) %MON ke_vol                       =   5.0990436378172E+19
(PID.TID 0000.0001) %MON vort_r_min                   =  -1.7833955651597E-04
(PID.TID 0000.0001) %MON vort_r_max                   =   2.2117861354319E-04
(PID.TID 0000.0001) %MON vort_a_mean                  =  -6.6186589692198E-20
(PID.TID 0000.0001) %MON vort_a_sd                    =   8.8602393812720E-05
(PID.TID 0000.0001) %MON vort_p_mean                  =  -5.8832489123507E-20
(PID.TID 0000.0001) %MON vort_p_sd                    =   8.8674198505616E-05
(PID.TID 0000.0001) %MON surfExpan_theta_mean         =  -1.7987388808830E-03
(PID.TID 0000.0001) %MON surfExpan_salt_mean          =   0.0000000000000E+00
(PID.TID 0000.0001) %MON surfExpan_Heat_mean          =  -4.4277381348688E-01
(PID.TID 0000.0001) %MON En_Budget_T2PE_mean          =   3.7582894176947E-01
(PID.TID 0000.0001) // =======================================================
(PID.TID 0000.0001) // End MONITOR dynamic field statistics
(PID.TID 0000.0001) // =======================================================
 cg2d: Sum(rhs),rhsMax =   5.58793544769287E-09  1.54315115256822E+04
(PID.TID 0000.0001)      cg2d_init_res =   2.35199883434116E+03
(PID.TID 0000.0001)      cg2d_iters(min,last) =      -1      16
(PID.TID 0000.0001)      cg2d_last_res =   5.34550077374318E-11
(PID.TID 0000.0001) // =======================================================
(PID.TID 0000.0001) // Begin MONITOR dynamic field statistics
(PID.TID 0000.0001) // =======================================================
(PID.TID 0000.0001) %MON time_tsnumber                =                276490
(PID.TID 0000.0001) %MON time_secondsf                =   1.2442050000000E+08
(PID.TID 0000.0001) %MON dynstat_eta_max              =   2.4500590401370E+03
(PID.TID 0000.0001) %MON dynstat_eta_min              =  -3.3578918204922E+03
(PID.TID 0000.0001) %MON dynstat_eta_mean             =  -2.6990473072106E-13
(PID.TID 0000.0001) %MON dynstat_eta_sd               =   7.8945200238442E+02
(PID.TID 0000.0001) %MON dynstat_eta_del2             =   2.0673219499250E+00
(PID.TID 0000.0001) %MON dynstat_uvel_max             =   6.7040469469898E+01
(PID.TID 0000.0001) %MON dynstat_uvel_min             =  -6.6955471832993E+01
(PID.TID 0000.0001) %MON dynstat_uvel_mean            =   2.0440945268557E+00
(PID.TID 0000.0001) %MON dynstat_uvel_sd              =   1.1150137345539E+01
(PID.TID 0000.0001) %MON dynstat_uvel_del2            =   1.0707592387478E-02
(PID.TID 0000.0001) %MON dynstat_vvel_max             =   7.2272563021240E+01
(PID.TID 0000.0001) %MON dynstat_vvel_min             =  -6.8857876201283E+01
(PID.TID 0000.0001) %MON dynstat_vvel_mean            =   2.0046131232292E+00
(PID.TID 0000.0001) %MON dynstat_vvel_sd              =   1.1658063777873E+01
(PID.TID 0000.0001) %MON dynstat_vvel_del2            =   1.0984236056897E-02
(PID.TID 0000.0001) %MON dynstat_wvel_max             =   7.8392961706758E-01
(PID.TID 0000.0001) %MON dynstat_wvel_min             =  -6.8444622840983E-01
(PID.TID 0000.0001) %MON dynstat_wvel_mean            =   6.5170591960249E-18
(PID.TID 0000.0001) %MON dynstat_wvel_sd              =   6.4071896074044E-02
(PID.TID 0000.0001) %MON dynstat_wvel_del2            =   2.0605140575160E-04
(PID.TID 0000.0001) %MON dynstat_theta_max            =   5.9684944644284E+02
(PID.TID 0000.0001) %MON dynstat_theta_min            =   2.6193136269371E+02
(PID.TID 0000.0001) %MON dynstat_theta_mean           =   3.2766091077191E+02
(PID.TID 0000.0001) %MON dynstat_theta_sd             =   6.3757378007170E+01
(PID.TID 0000.0001) %MON dynstat_theta_del2           =   5.1784289892575E-03
(PID.TID 0000.0001) %MON dynstat_salt_max             =   0.0000000000000E+00
(PID.TID 0000.0001) %MON dynstat_salt_min             =   0.0000000000000E+00
(PID.TID 0000.0001) %MON dynstat_salt_mean            =   0.0000000000000E+00
(PID.TID 0000.0001) %MON dynstat_salt_sd              =   0.0000000000000E+00
(PID.TID 0000.0001) %MON dynstat_salt_del2            =   0.0000000000000E+00
(PID.TID 0000.0001) %MON advcfl_uvel_max              =   2.7041713683783E-01
(PID.TID 0000.0001) %MON advcfl_vvel_max              =   2.2579019842025E-01
(PID.TID 0000.0001) %MON advcfl_wvel_max              =   7.0553665536082E-02
(PID.TID 0000.0001) %MON advcfl_W_hf_max              =   6.9951630511850E-02
(PID.TID 0000.0001) %MON am_eta_mean                  =  -2.9491673145763E+09
(PID.TID 0000.0001) %MON am_uZo_mean                  =   2.8063084308620E+11
(PID.TID 0000.0001) %MON am_tot_mean                  =   2.7768167577162E+11
(PID.TID 0000.0001) %MON pe_b_mean                    =   2.6387818435467E+00
(PID.TID 0000.0001) %MON ke_max                       =   3.2344768232627E+03
(PID.TID 0000.0001) %MON ke_mean                      =   1.3418109072178E+02
(PID.TID 0000.0001) %MON ke_vol                       =   5.0990436378172E+19
(PID.TID 0000.0001) %MON vort_r_min                   =  -1.7819826612589E-04
(PID.TID 0000.0001) %MON vort_r_max                   =   2.2152079562771E-04
(PID.TID 0000.0001) %MON vort_a_mean                  =  -7.8443365561124E-20
(PID.TID 0000.0001) %MON vort_a_sd                    =   8.8600004507074E-05
(PID.TID 0000.0001) %MON vort_p_mean                  =  -7.8443318947901E-20
(PID.TID 0000.0001) %MON vort_p_sd                    =   8.8671483396186E-05
(PID.TID 0000.0001) %MON surfExpan_theta_mean         =  -2.6913976112482E-03
(PID.TID 0000.0001) %MON surfExpan_salt_mean          =   0.0000000000000E+00
(PID.TID 0000.0001) %MON surfExpan_Heat_mean          =  -5.1230886329167E-01
(PID.TID 0000.0001) %MON En_Budget_T2PE_mean          =   3.2637990860775E-01
(PID.TID 0000.0001) // =======================================================
(PID.TID 0000.0001) // End MONITOR dynamic field statistics
(PID.TID 0000.0001) // =======================================================
 cg2d: Sum(rhs),rhsMax =   4.65661287307739E-09  1.54891973463696E+04
(PID.TID 0000.0001)      cg2d_init_res =   2.36506136203981E+03
(PID.TID 0000.0001)      cg2d_iters(min,last) =      -1      16
(PID.TID 0000.0001)      cg2d_last_res =   5.22012117617344E-11
(PID.TID 0000.0001) // =======================================================
(PID.TID 0000.0001) // Begin MONITOR dynamic field statistics
(PID.TID 0000.0001) // =======================================================
(PID.TID 0000.0001) %MON time_tsnumber                =                276491
(PID.TID 0000.0001) %MON time_secondsf                =   1.2442095000000E+08
(PID.TID 0000.0001) %MON dynstat_eta_max              =   2.4418469415165E+03
(PID.TID 0000.0001) %MON dynstat_eta_min              =  -3.3607186141319E+03
(PID.TID 0000.0001) %MON dynstat_eta_mean             =  -1.3495236536053E-13
(PID.TID 0000.0001) %MON dynstat_eta_sd               =   7.8654763508442E+02
(PID.TID 0000.0001) %MON dynstat_eta_del2             =   2.0810256700198E+00
(PID.TID 0000.0001) %MON dynstat_uvel_max             =   6.7023554593668E+01
(PID.TID 0000.0001) %MON dynstat_uvel_min             =  -6.6995695910676E+01
(PID.TID 0000.0001) %MON dynstat_uvel_mean            =   2.0436101214447E+00
(PID.TID 0000.0001) %MON dynstat_uvel_sd              =   1.1148501426740E+01
(PID.TID 0000.0001) %MON dynstat_uvel_del2            =   1.0705466056283E-02
(PID.TID 0000.0001) %MON dynstat_vvel_max             =   7.2300872109063E+01
(PID.TID 0000.0001) %MON dynstat_vvel_min             =  -6.8908522693870E+01
(PID.TID 0000.0001) %MON dynstat_vvel_mean            =   2.0038329012739E+00
(PID.TID 0000.0001) %MON dynstat_vvel_sd              =   1.1656571750197E+01
(PID.TID 0000.0001) %MON dynstat_vvel_del2            =   1.0980074486911E-02
(PID.TID 0000.0001) %MON dynstat_wvel_max             =   7.8080972950117E-01
(PID.TID 0000.0001) %MON dynstat_wvel_min             =  -6.8544040316493E-01
(PID.TID 0000.0001) %MON dynstat_wvel_mean            =   7.2210625042375E-18
(PID.TID 0000.0001) %MON dynstat_wvel_sd              =   6.4124304520164E-02
(PID.TID 0000.0001) %MON dynstat_wvel_del2            =   2.0625618222020E-04
(PID.TID 0000.0001) %MON dynstat_theta_max            =   5.9696549416099E+02
(PID.TID 0000.0001) %MON dynstat_theta_min            =   2.6194253215156E+02
(PID.TID 0000.0001) %MON dynstat_theta_mean           =   3.2766093464679E+02
(PID.TID 0000.0001) %MON dynstat_theta_sd             =   6.3757368323434E+01
(PID.TID 0000.0001) %MON dynstat_theta_del2           =   5.1790389801710E-03
(PID.TID 0000.0001) %MON dynstat_salt_max             =   0.0000000000000E+00
(PID.TID 0000.0001) %MON dynstat_salt_min             =   0.0000000000000E+00
(PID.TID 0000.0001) %MON dynstat_salt_mean            =   0.0000000000000E+00
(PID.TID 0000.0001) %MON dynstat_salt_sd              =   0.0000000000000E+00
(PID.TID 0000.0001) %MON dynstat_salt_del2            =   0.0000000000000E+00
(PID.TID 0000.0001) %MON advcfl_uvel_max              =   2.7057959226711E-01
(PID.TID 0000.0001) %MON advcfl_vvel_max              =   2.2565707592424E-01
(PID.TID 0000.0001) %MON advcfl_wvel_max              =   7.0272875655105E-02
(PID.TID 0000.0001) %MON advcfl_W_hf_max              =   6.9675888930066E-02
(PID.TID 0000.0001) %MON am_eta_mean                  =  -2.9492343954137E+09
(PID.TID 0000.0001) %MON am_uZo_mean                  =   2.8062430607355E+11
(PID.TID 0000.0001) %MON am_tot_mean                  =   2.7767507167814E+11
(PID.TID 0000.0001) %MON pe_b_mean                    =   2.6194015800435E+00
(PID.TID 0000.0001) %MON ke_max                       =   3.2321295871324E+03
(PID.TID 0000.0001) %MON ke_mean                      =   1.3414290850674E+02
(PID.TID 0000.0001) %MON ke_vol                       =   5.0990436378172E+19
(PID.TID 0000.0001) %MON vort_r_min                   =  -1.7801079995860E-04
(PID.TID 0000.0001) %MON vort_r_max                   =   2.2226415748753E-04
(PID.TID 0000.0001) %MON vort_a_mean                  =   4.6575748301917E-20
(PID.TID 0000.0001) %MON vort_a_sd                    =   8.8597565778678E-05
(PID.TID 0000.0001) %MON vort_p_mean                  =   4.9027074387038E-20
(PID.TID 0000.0001) %MON vort_p_sd                    =   8.8668789945174E-05
(PID.TID 0000.0001) %MON surfExpan_theta_mean         =  -3.3888262427969E-03
(PID.TID 0000.0001) %MON surfExpan_salt_mean          =   0.0000000000000E+00
(PID.TID 0000.0001) %MON surfExpan_Heat_mean          =  -5.5801143498925E-01
(PID.TID 0000.0001) %MON En_Budget_T2PE_mean          =   2.8767640274055E-01
(PID.TID 0000.0001) // =======================================================
(PID.TID 0000.0001) // End MONITOR dynamic field statistics
(PID.TID 0000.0001) // =======================================================
 cg2d: Sum(rhs),rhsMax =   7.91624188423157E-09  1.55532776651648E+04
(PID.TID 0000.0001)      cg2d_init_res =   2.36887322032630E+03
(PID.TID 0000.0001)      cg2d_iters(min,last) =      -1      16
(PID.TID 0000.0001)      cg2d_last_res =   5.10745505809370E-11
(PID.TID 0000.0001) // =======================================================
(PID.TID 0000.0001) // Begin MONITOR dynamic field statistics
(PID.TID 0000.0001) // =======================================================
(PID.TID 0000.0001) %MON time_tsnumber                =                276492
(PID.TID 0000.0001) %MON time_secondsf                =   1.2442140000000E+08
(PID.TID 0000.0001) %MON dynstat_eta_max              =   2.4347364592132E+03
(PID.TID 0000.0001) %MON dynstat_eta_min              =  -3.3671274463275E+03
(PID.TID 0000.0001) %MON dynstat_eta_mean             =  -1.7993648714737E-13
(PID.TID 0000.0001) %MON dynstat_eta_sd               =   7.8409146966764E+02
(PID.TID 0000.0001) %MON dynstat_eta_del2             =   2.0922453337972E+00
(PID.TID 0000.0001) %MON dynstat_uvel_max             =   6.7010339296033E+01
(PID.TID 0000.0001) %MON dynstat_uvel_min             =  -6.7028847753031E+01
(PID.TID 0000.0001) %MON dynstat_uvel_mean            =   2.0431330749985E+00
(PID.TID 0000.0001) %MON dynstat_uvel_sd              =   1.1146670859388E+01
(PID.TID 0000.0001) %MON dynstat_uvel_del2            =   1.0703397707333E-02
(PID.TID 0000.0001) %MON dynstat_vvel_max             =   7.2322077642442E+01
(PID.TID 0000.0001) %MON dynstat_vvel_min             =  -6.8959544340098E+01
(PID.TID 0000.0001) %MON dynstat_vvel_mean            =   2.0030272603084E+00
(PID.TID 0000.0001) %MON dynstat_vvel_sd              =   1.1654927727637E+01
(PID.TID 0000.0001) %MON dynstat_vvel_del2            =   1.0975968376969E-02
(PID.TID 0000.0001) %MON dynstat_wvel_max             =   7.7769656416534E-01
(PID.TID 0000.0001) %MON dynstat_wvel_min             =  -6.8610301254267E-01
(PID.TID 0000.0001) %MON dynstat_wvel_mean            =  -2.2125818258109E-19
(PID.TID 0000.0001) %MON dynstat_wvel_sd              =   6.4200410659078E-02
(PID.TID 0000.0001) %MON dynstat_wvel_del2            =   2.0644784986577E-04
(PID.TID 0000.0001) %MON dynstat_theta_max            =   5.9706708224532E+02
(PID.TID 0000.0001) %MON dynstat_theta_min            =   2.6195437917966E+02
(PID.TID 0000.0001) %MON dynstat_theta_mean           =   3.2766095680173E+02
(PID.TID 0000.0001) %MON dynstat_theta_sd             =   6.3757360661540E+01
(PID.TID 0000.0001) %MON dynstat_theta_del2           =   5.1792755474959E-03
(PID.TID 0000.0001) %MON dynstat_salt_max             =   0.0000000000000E+00
(PID.TID 0000.0001) %MON dynstat_salt_min             =   0.0000000000000E+00
(PID.TID 0000.0001) %MON dynstat_salt_mean            =   0.0000000000000E+00
(PID.TID 0000.0001) %MON dynstat_salt_sd              =   0.0000000000000E+00
(PID.TID 0000.0001) %MON dynstat_salt_del2            =   0.0000000000000E+00
(PID.TID 0000.0001) %MON advcfl_uvel_max              =   2.7071348462937E-01
(PID.TID 0000.0001) %MON advcfl_vvel_max              =   2.2552495824548E-01
(PID.TID 0000.0001) %MON advcfl_wvel_max              =   6.9992690774880E-02
(PID.TID 0000.0001) %MON advcfl_W_hf_max              =   6.9400376746852E-02
(PID.TID 0000.0001) %MON am_eta_mean                  =  -2.9492288246617E+09
(PID.TID 0000.0001) %MON am_uZo_mean                  =   2.8061767577495E+11
(PID.TID 0000.0001) %MON am_tot_mean                  =   2.7766844695028E+11
(PID.TID 0000.0001) %MON pe_b_mean                    =   2.6030678247780E+00
(PID.TID 0000.0001) %MON ke_max                       =   3.2295690470928E+03
(PID.TID 0000.0001) %MON ke_mean                      =   1.3410075649475E+02
(PID.TID 0000.0001) %MON ke_vol                       =   5.0990436378172E+19
(PID.TID 0000.0001) %MON vort_r_min                   =  -1.7787612073335E-04
(PID.TID 0000.0001) %MON vort_r_max                   =   2.2298157381346E-04
(PID.TID 0000.0001) %MON vort_a_mean                  =   3.4318972432992E-20
(PID.TID 0000.0001) %MON vort_a_sd                    =   8.8595094377880E-05
(PID.TID 0000.0001) %MON vort_p_mean                  =   3.6770305807884E-20
(PID.TID 0000.0001) %MON vort_p_sd                    =   8.8666131140393E-05
(PID.TID 0000.0001) %MON surfExpan_theta_mean         =  -3.8618115435832E-03
(PID.TID 0000.0001) %MON surfExpan_salt_mean          =   0.0000000000000E+00
(PID.TID 0000.0001) %MON surfExpan_Heat_mean          =  -5.7834001886262E-01
(PID.TID 0000.0001) %MON En_Budget_T2PE_mean          =   2.5958101035491E-01
(PID.TID 0000.0001) // =======================================================
(PID.TID 0000.0001) // End MONITOR dynamic field statistics
(PID.TID 0000.0001) // =======================================================
 cg2d: Sum(rhs),rhsMax =   5.82076609134674E-09  1.56198395067995E+04
(PID.TID 0000.0001)      cg2d_init_res =   2.36278233297671E+03
(PID.TID 0000.0001)      cg2d_iters(min,last) =      -1      16
(PID.TID 0000.0001)      cg2d_last_res =   5.04144330127309E-11
(PID.TID 0000.0001) // =======================================================
(PID.TID 0000.0001) // Begin MONITOR dynamic field statistics
(PID.TID 0000.0001) // =======================================================
(PID.TID 0000.0001) %MON time_tsnumber                =                276493
(PID.TID 0000.0001) %MON time_secondsf                =   1.2442185000000E+08
(PID.TID 0000.0001) %MON dynstat_eta_max              =   2.4288136566504E+03
(PID.TID 0000.0001) %MON dynstat_eta_min              =  -3.3762240459266E+03
(PID.TID 0000.0001) %MON dynstat_eta_mean             =  -1.6065757781016E-13
(PID.TID 0000.0001) %MON dynstat_eta_sd               =   7.8209288355533E+02
(PID.TID 0000.0001) %MON dynstat_eta_del2             =   2.1005691000004E+00
(PID.TID 0000.0001) %MON dynstat_uvel_max             =   6.7000533679034E+01
(PID.TID 0000.0001) %MON dynstat_uvel_min             =  -6.7054096696111E+01
(PID.TID 0000.0001) %MON dynstat_uvel_mean            =   2.0426639150111E+00
(PID.TID 0000.0001) %MON dynstat_uvel_sd              =   1.1144651942566E+01
(PID.TID 0000.0001) %MON dynstat_uvel_del2            =   1.0701415770597E-02
(PID.TID 0000.0001) %MON dynstat_vvel_max             =   7.2336133150140E+01
(PID.TID 0000.0001) %MON dynstat_vvel_min             =  -6.9009192482653E+01
(PID.TID 0000.0001) %MON dynstat_vvel_mean            =   2.0021898353554E+00
(PID.TID 0000.0001) %MON dynstat_vvel_sd              =   1.1653120331470E+01
(PID.TID 0000.0001) %MON dynstat_vvel_del2            =   1.0971910533966E-02
(PID.TID 0000.0001) %MON dynstat_wvel_max             =   7.7456469602031E-01
(PID.TID 0000.0001) %MON dynstat_wvel_min             =  -6.8649973039464E-01
(PID.TID 0000.0001) %MON dynstat_wvel_mean            =  -9.2325005277019E-18
(PID.TID 0000.0001) %MON dynstat_wvel_sd              =   6.4295592322200E-02
(PID.TID 0000.0001) %MON dynstat_wvel_del2            =   2.0661643924239E-04
(PID.TID 0000.0001) %MON dynstat_theta_max            =   5.9715847890502E+02
(PID.TID 0000.0001) %MON dynstat_theta_min            =   2.6196689950070E+02
(PID.TID 0000.0001) %MON dynstat_theta_mean           =   3.2766097722421E+02
(PID.TID 0000.0001) %MON dynstat_theta_sd             =   6.3757354692375E+01
(PID.TID 0000.0001) %MON dynstat_theta_del2           =   5.1791682135954E-03
(PID.TID 0000.0001) %MON dynstat_salt_max             =   0.0000000000000E+00
(PID.TID 0000.0001) %MON dynstat_salt_min             =   0.0000000000000E+00
(PID.TID 0000.0001) %MON dynstat_salt_mean            =   0.0000000000000E+00
(PID.TID 0000.0001) %MON dynstat_salt_sd              =   0.0000000000000E+00
(PID.TID 0000.0001) %MON dynstat_salt_del2            =   0.0000000000000E+00
(PID.TID 0000.0001) %MON advcfl_uvel_max              =   2.7081545907162E-01
(PID.TID 0000.0001) %MON advcfl_vvel_max              =   2.2539917045146E-01
(PID.TID 0000.0001) %MON advcfl_wvel_max              =   6.9710822641828E-02
(PID.TID 0000.0001) %MON advcfl_W_hf_max              =   6.9122747565718E-02
(PID.TID 0000.0001) %MON am_eta_mean                  =  -2.9492045690923E+09
(PID.TID 0000.0001) %MON am_uZo_mean                  =   2.8061100255567E+11
(PID.TID 0000.0001) %MON am_tot_mean                  =   2.7766179798658E+11
(PID.TID 0000.0001) %MON pe_b_mean                    =   2.5898147157085E+00
(PID.TID 0000.0001) %MON ke_max                       =   3.2268054006048E+03
(PID.TID 0000.0001) %MON ke_mean                      =   1.3405456221204E+02
(PID.TID 0000.0001) %MON ke_vol                       =   5.0990436378172E+19
(PID.TID 0000.0001) %MON vort_r_min                   =  -1.7771405806522E-04
(PID.TID 0000.0001) %MON vort_r_max                   =   2.2367293315523E-04
(PID.TID 0000.0001) %MON vort_a_mean                  =  -8.5797431082479E-20
(PID.TID 0000.0001) %MON vort_a_sd                    =   8.8592604812743E-05
(PID.TID 0000.0001) %MON vort_p_mean                  =  -8.5797380231083E-20
(PID.TID 0000.0001) %MON vort_p_sd                    =   8.8663516151447E-05
(PID.TID 0000.0001) %MON surfExpan_theta_mean         =  -4.1086382428786E-03
(PID.TID 0000.0001) %MON surfExpan_salt_mean          =   0.0000000000000E+00
(PID.TID 0000.0001) %MON surfExpan_Heat_mean          =  -5.7424081732967E-01
(PID.TID 0000.0001) %MON En_Budget_T2PE_mean          =   2.4171183486121E-01
(PID.TID 0000.0001) // =======================================================
(PID.TID 0000.0001) // End MONITOR dynamic field statistics
(PID.TID 0000.0001) // =======================================================
 Compute Stats, Diag. #     23  ETAN      vol(   0 ): 5.099E+14  Parms: SM      M1      
 Compute Stats, Diag. #     29  UVEL      vol(   0 ): 5.099E+19  Parms: UUR     MR      
 Compute Stats, Diag. #     30  VVEL      vol(   0 ): 5.099E+19  Parms: VVR     MR      
 Compute Stats, Diag. #     31  WVEL      vol(   0 ): 4.972E+19  Parms: WM      LR      
 Compute Stats, Diag. #     26  THETA     vol(   0 ): 5.099E+19  Parms: SMR     MR      
 cg2d: Sum(rhs),rhsMax =   1.74622982740402E-09  1.56858146987304E+04
(PID.TID 0000.0001)      cg2d_init_res =   2.34738867799929E+03
(PID.TID 0000.0001)      cg2d_iters(min,last) =      -1      16
(PID.TID 0000.0001)      cg2d_last_res =   4.98457113689144E-11
(PID.TID 0000.0001) // =======================================================
(PID.TID 0000.0001) // Begin MONITOR dynamic field statistics
(PID.TID 0000.0001) // =======================================================
(PID.TID 0000.0001) %MON time_tsnumber                =                276494
(PID.TID 0000.0001) %MON time_secondsf                =   1.2442230000000E+08
(PID.TID 0000.0001) %MON dynstat_eta_max              =   2.4241459541414E+03
(PID.TID 0000.0001) %MON dynstat_eta_min              =  -3.3870439744461E+03
(PID.TID 0000.0001) %MON dynstat_eta_mean             =  -1.9921539648459E-13
(PID.TID 0000.0001) %MON dynstat_eta_sd               =   7.8054924548879E+02
(PID.TID 0000.0001) %MON dynstat_eta_del2             =   2.1059697821481E+00
(PID.TID 0000.0001) %MON dynstat_uvel_max             =   6.6993613648056E+01
(PID.TID 0000.0001) %MON dynstat_uvel_min             =  -6.7071133767847E+01
(PID.TID 0000.0001) %MON dynstat_uvel_mean            =   2.0422011631816E+00
(PID.TID 0000.0001) %MON dynstat_uvel_sd              =   1.1142455557901E+01
(PID.TID 0000.0001) %MON dynstat_uvel_del2            =   1.0699537353491E-02
(PID.TID 0000.0001) %MON dynstat_vvel_max             =   7.2343244474309E+01
(PID.TID 0000.0001) %MON dynstat_vvel_min             =  -6.9056204176054E+01
(PID.TID 0000.0001) %MON dynstat_vvel_mean            =   2.0013169435274E+00
(PID.TID 0000.0001) %MON dynstat_vvel_sd              =   1.1651143096323E+01
(PID.TID 0000.0001) %MON dynstat_vvel_del2            =   1.0967885675494E-02
(PID.TID 0000.0001) %MON dynstat_wvel_max             =   7.7138665947711E-01
(PID.TID 0000.0001) %MON dynstat_wvel_min             =  -6.8667114223275E-01
(PID.TID 0000.0001) %MON dynstat_wvel_mean            =   3.6407028224707E-18
(PID.TID 0000.0001) %MON dynstat_wvel_sd              =   6.4405333065242E-02
(PID.TID 0000.0001) %MON dynstat_wvel_del2            =   2.0675672913409E-04
(PID.TID 0000.0001) %MON dynstat_theta_max            =   5.9728004764243E+02
(PID.TID 0000.0001) %MON dynstat_theta_min            =   2.6198008555334E+02
(PID.TID 0000.0001) %MON dynstat_theta_mean           =   3.2766099605492E+02
(PID.TID 0000.0001) %MON dynstat_theta_sd             =   6.3757350035903E+01
(PID.TID 0000.0001) %MON dynstat_theta_del2           =   5.1787599011212E-03
(PID.TID 0000.0001) %MON dynstat_salt_max             =   0.0000000000000E+00
(PID.TID 0000.0001) %MON dynstat_salt_min             =   0.0000000000000E+00
(PID.TID 0000.0001) %MON dynstat_salt_mean            =   0.0000000000000E+00
(PID.TID 0000.0001) %MON dynstat_salt_sd              =   0.0000000000000E+00
(PID.TID 0000.0001) %MON dynstat_salt_del2            =   0.0000000000000E+00
(PID.TID 0000.0001) %MON advcfl_uvel_max              =   2.7088426772957E-01
(PID.TID 0000.0001) %MON advcfl_vvel_max              =   2.2528477328755E-01
(PID.TID 0000.0001) %MON advcfl_wvel_max              =   6.9424799352940E-02
(PID.TID 0000.0001) %MON advcfl_W_hf_max              =   6.8840508728815E-02
(PID.TID 0000.0001) %MON am_eta_mean                  =  -2.9492167194426E+09
(PID.TID 0000.0001) %MON am_uZo_mean                  =   2.8060433995829E+11
(PID.TID 0000.0001) %MON am_tot_mean                  =   2.7765512323885E+11
(PID.TID 0000.0001) %MON pe_b_mean                    =   2.5796016286352E+00
(PID.TID 0000.0001) %MON ke_max                       =   3.2238205140387E+03
(PID.TID 0000.0001) %MON ke_mean                      =   1.3400436291874E+02
(PID.TID 0000.0001) %MON ke_vol                       =   5.0990436378172E+19
(PID.TID 0000.0001) %MON vort_r_min                   =  -1.7748737541224E-04
(PID.TID 0000.0001) %MON vort_r_max                   =   2.2433835609521E-04
(PID.TID 0000.0001) %MON vort_a_mean                  =   9.8054206951405E-20
(PID.TID 0000.0001) %MON vort_a_sd                    =   8.8590108980550E-05
(PID.TID 0000.0001) %MON vort_p_mean                  =   1.0050550254344E-19
(PID.TID 0000.0001) %MON vort_p_sd                    =   8.8660950970930E-05
(PID.TID 0000.0001) %MON surfExpan_theta_mean         =  -4.1488779482508E-03
(PID.TID 0000.0001) %MON surfExpan_salt_mean          =   0.0000000000000E+00
(PID.TID 0000.0001) %MON surfExpan_Heat_mean          =  -5.4854060875391E-01
(PID.TID 0000.0001) %MON En_Budget_T2PE_mean          =   2.3351603921502E-01
(PID.TID 0000.0001) // =======================================================
(PID.TID 0000.0001) // End MONITOR dynamic field statistics
(PID.TID 0000.0001) // =======================================================
 cg2d: Sum(rhs),rhsMax =   3.49245965480804E-09  1.57489749368835E+04
(PID.TID 0000.0001)      cg2d_init_res =   2.32453725776117E+03
(PID.TID 0000.0001)      cg2d_iters(min,last) =      -1      16
(PID.TID 0000.0001)      cg2d_last_res =   4.94468425536083E-11
(PID.TID 0000.0001) // =======================================================
(PID.TID 0000.0001) // Begin MONITOR dynamic field statistics
(PID.TID 0000.0001) // =======================================================
(PID.TID 0000.0001) %MON time_tsnumber                =                276495
(PID.TID 0000.0001) %MON time_secondsf                =   1.2442275000000E+08
(PID.TID 0000.0001) %MON dynstat_eta_max              =   2.4207461048893E+03
(PID.TID 0000.0001) %MON dynstat_eta_min              =  -3.3986503556293E+03
(PID.TID 0000.0001) %MON dynstat_eta_mean             =  -1.0282084979850E-13
(PID.TID 0000.0001) %MON dynstat_eta_sd               =   7.7944928172584E+02
(PID.TID 0000.0001) %MON dynstat_eta_del2             =   2.1086846663994E+00
(PID.TID 0000.0001) %MON dynstat_uvel_max             =   6.6988912477208E+01
(PID.TID 0000.0001) %MON dynstat_uvel_min             =  -6.7080069941544E+01
(PID.TID 0000.0001) %MON dynstat_uvel_mean            =   2.0417415735316E+00
(PID.TID 0000.0001) %MON dynstat_uvel_sd              =   1.1140096004533E+01
(PID.TID 0000.0001) %MON dynstat_uvel_del2            =   1.0697767940787E-02
(PID.TID 0000.0001) %MON dynstat_vvel_max             =   7.2343771025297E+01
(PID.TID 0000.0001) %MON dynstat_vvel_min             =  -6.9099749365629E+01
(PID.TID 0000.0001) %MON dynstat_vvel_mean            =   2.0004073793126E+00
(PID.TID 0000.0001) %MON dynstat_vvel_sd              =   1.1648994425718E+01
(PID.TID 0000.0001) %MON dynstat_vvel_del2            =   1.0963875775350E-02
(PID.TID 0000.0001) %MON dynstat_wvel_max             =   7.7062520087525E-01
(PID.TID 0000.0001) %MON dynstat_wvel_min             =  -6.8663470272855E-01
(PID.TID 0000.0001) %MON dynstat_wvel_mean            =  -1.0318677060373E-17
(PID.TID 0000.0001) %MON dynstat_wvel_sd              =   6.4525307183380E-02
(PID.TID 0000.0001) %MON dynstat_wvel_del2            =   2.0686689331037E-04
(PID.TID 0000.0001) %MON dynstat_theta_max            =   5.9739419971407E+02
(PID.TID 0000.0001) %MON dynstat_theta_min            =   2.6199392739613E+02
(PID.TID 0000.0001) %MON dynstat_theta_mean           =   3.2766101354029E+02
(PID.TID 0000.0001) %MON dynstat_theta_sd             =   6.3757346292744E+01
(PID.TID 0000.0001) %MON dynstat_theta_del2           =   5.1781007329933E-03
(PID.TID 0000.0001) %MON dynstat_salt_max             =   0.0000000000000E+00
(PID.TID 0000.0001) %MON dynstat_salt_min             =   0.0000000000000E+00
(PID.TID 0000.0001) %MON dynstat_salt_mean            =   0.0000000000000E+00
(PID.TID 0000.0001) %MON dynstat_salt_sd              =   0.0000000000000E+00
(PID.TID 0000.0001) %MON dynstat_salt_del2            =   0.0000000000000E+00
(PID.TID 0000.0001) %MON advcfl_uvel_max              =   2.7092035879785E-01
(PID.TID 0000.0001) %MON advcfl_vvel_max              =   2.2518615367877E-01
(PID.TID 0000.0001) %MON advcfl_wvel_max              =   6.9356268078773E-02
(PID.TID 0000.0001) %MON advcfl_W_hf_max              =   6.8559170237938E-02
(PID.TID 0000.0001) %MON am_eta_mean                  =  -2.9493209755179E+09
(PID.TID 0000.0001) %MON am_uZo_mean                  =   2.8059774352368E+11
(PID.TID 0000.0001) %MON am_tot_mean                  =   2.7764842254816E+11
(PID.TID 0000.0001) %MON pe_b_mean                    =   2.5723363112307E+00
(PID.TID 0000.0001) %MON ke_max                       =   3.2205808640203E+03
(PID.TID 0000.0001) %MON ke_mean                      =   1.3395029214615E+02
(PID.TID 0000.0001) %MON ke_vol                       =   5.0990436378172E+19
(PID.TID 0000.0001) %MON vort_r_min                   =  -1.7719416772948E-04
(PID.TID 0000.0001) %MON vort_r_max                   =   2.2497808663607E-04
(PID.TID 0000.0001) %MON vort_a_mean                  =   1.0540827247276E-19
(PID.TID 0000.0001) %MON vort_a_sd                    =   8.8587616294455E-05
(PID.TID 0000.0001) %MON vort_p_mean                  =   1.0540820994326E-19
(PID.TID 0000.0001) %MON vort_p_sd                    =   8.8658439051427E-05
(PID.TID 0000.0001) %MON surfExpan_theta_mean         =  -4.0167730555374E-03
(PID.TID 0000.0001) %MON surfExpan_salt_mean          =   0.0000000000000E+00
(PID.TID 0000.0001) %MON surfExpan_Heat_mean          =  -5.0532150454852E-01
(PID.TID 0000.0001) %MON En_Budget_T2PE_mean          =   2.3433280031345E-01
(PID.TID 0000.0001) // =======================================================
(PID.TID 0000.0001) // End MONITOR dynamic field statistics
(PID.TID 0000.0001) // =======================================================
 cg2d: Sum(rhs),rhsMax =   5.23868948221207E-09  1.58078604513157E+04
(PID.TID 0000.0001)      cg2d_init_res =   2.29708710655123E+03
(PID.TID 0000.0001)      cg2d_iters(min,last) =      -1      16
(PID.TID 0000.0001)      cg2d_last_res =   4.93739854399662E-11
(PID.TID 0000.0001) // =======================================================
(PID.TID 0000.0001) // Begin MONITOR dynamic field statistics
(PID.TID 0000.0001) // =======================================================
(PID.TID 0000.0001) %MON time_tsnumber                =                276496
(PID.TID 0000.0001) %MON time_secondsf                =   1.2442320000000E+08
(PID.TID 0000.0001) %MON dynstat_eta_max              =   2.4185412426419E+03
(PID.TID 0000.0001) %MON dynstat_eta_min              =  -3.4102146830230E+03
(PID.TID 0000.0001) %MON dynstat_eta_mean             =  -1.0282084979850E-13
(PID.TID 0000.0001) %MON dynstat_eta_sd               =   7.7877574859093E+02
(PID.TID 0000.0001) %MON dynstat_eta_del2             =   2.1091084566734E+00
(PID.TID 0000.0001) %MON dynstat_uvel_max             =   6.6985690616549E+01
(PID.TID 0000.0001) %MON dynstat_uvel_min             =  -6.7081297695395E+01
(PID.TID 0000.0001) %MON dynstat_uvel_mean            =   2.0412805119019E+00
(PID.TID 0000.0001) %MON dynstat_uvel_sd              =   1.1137590197564E+01
(PID.TID 0000.0001) %MON dynstat_uvel_del2            =   1.0696101985718E-02
(PID.TID 0000.0001) %MON dynstat_vvel_max             =   7.2338160200940E+01
(PID.TID 0000.0001) %MON dynstat_vvel_min             =  -6.9139295965464E+01
(PID.TID 0000.0001) %MON dynstat_vvel_mean            =   1.9994620302297E+00
(PID.TID 0000.0001) %MON dynstat_vvel_sd              =   1.1646677244780E+01
(PID.TID 0000.0001) %MON dynstat_vvel_del2            =   1.0959863575417E-02
(PID.TID 0000.0001) %MON dynstat_wvel_max             =   7.7623796401281E-01
(PID.TID 0000.0001) %MON dynstat_wvel_min             =  -6.8638934016306E-01
(PID.TID 0000.0001) %MON dynstat_wvel_mean            =  -2.1321243048723E-18
(PID.TID 0000.0001) %MON dynstat_wvel_sd              =   6.4651471987945E-02
(PID.TID 0000.0001) %MON dynstat_wvel_del2            =   2.0694695990329E-04
(PID.TID 0000.0001) %MON dynstat_theta_max            =   5.9750297901353E+02
(PID.TID 0000.0001) %MON dynstat_theta_min            =   2.6200841390611E+02
(PID.TID 0000.0001) %MON dynstat_theta_mean           =   3.2766102998757E+02
(PID.TID 0000.0001) %MON dynstat_theta_sd             =   6.3757343070653E+01
(PID.TID 0000.0001) %MON dynstat_theta_del2           =   5.1772430679403E-03
(PID.TID 0000.0001) %MON dynstat_salt_max             =   0.0000000000000E+00
(PID.TID 0000.0001) %MON dynstat_salt_min             =   0.0000000000000E+00
(PID.TID 0000.0001) %MON dynstat_salt_mean            =   0.0000000000000E+00
(PID.TID 0000.0001) %MON dynstat_salt_sd              =   0.0000000000000E+00
(PID.TID 0000.0001) %MON dynstat_salt_del2            =   0.0000000000000E+00
(PID.TID 0000.0001) %MON advcfl_uvel_max              =   2.7092531740201E-01
(PID.TID 0000.0001) %MON advcfl_vvel_max              =   2.2510671989510E-01
(PID.TID 0000.0001) %MON advcfl_wvel_max              =   6.9861416761153E-02
(PID.TID 0000.0001) %MON advcfl_W_hf_max              =   6.9056597954559E-02
(PID.TID 0000.0001) %MON am_eta_mean                  =  -2.9495730405756E+09
(PID.TID 0000.0001) %MON am_uZo_mean                  =   2.8059126946055E+11
(PID.TID 0000.0001) %MON am_tot_mean                  =   2.7764169641997E+11
(PID.TID 0000.0001) %MON pe_b_mean                    =   2.5678926476896E+00
(PID.TID 0000.0001) %MON ke_max                       =   3.2170498723138E+03
(PID.TID 0000.0001) %MON ke_mean                      =   1.3389256668173E+02
(PID.TID 0000.0001) %MON ke_vol                       =   5.0990436378172E+19
(PID.TID 0000.0001) %MON vort_r_min                   =  -1.7683274759604E-04
(PID.TID 0000.0001) %MON vort_r_max                   =   2.2559238171284E-04
(PID.TID 0000.0001) %MON vort_a_mean                  =   1.7404621733874E-19
(PID.TID 0000.0001) %MON vort_a_sd                    =   8.8585134097068E-05
(PID.TID 0000.0001) %MON vort_p_mean                  =   1.7404611397537E-19
(PID.TID 0000.0001) %MON vort_p_sd                    =   8.8655981878673E-05
(PID.TID 0000.0001) %MON surfExpan_theta_mean         =  -3.7549883810933E-03
(PID.TID 0000.0001) %MON surfExpan_salt_mean          =   0.0000000000000E+00
(PID.TID 0000.0001) %MON surfExpan_Heat_mean          =  -4.4934018990211E-01
(PID.TID 0000.0001) %MON En_Budget_T2PE_mean          =   2.4344384043441E-01
(PID.TID 0000.0001) // =======================================================
(PID.TID 0000.0001) // End MONITOR dynamic field statistics
(PID.TID 0000.0001) // =======================================================
(PID.TID 0000.0001) DIAGSTATS_CLOSE_IO: close file: dynStDiag.0000276480.txt , unit=     9
(PID.TID 0000.0001) %CHECKPOINT    276496 ckptA
(PID.TID 0000.0001)   Seconds in section "ALL                    [THE_MODEL_MAIN]":
(PID.TID 0000.0001)           User time:   25.370000000000001
(PID.TID 0000.0001)         System time:  8.99999999999999967E-002
(PID.TID 0000.0001)     Wall clock time:   25.663639068603516
(PID.TID 0000.0001)          No. starts:           1
(PID.TID 0000.0001)           No. stops:           1
(PID.TID 0000.0001)   Seconds in section "INITIALISE_FIXED       [THE_MODEL_MAIN]":
(PID.TID 0000.0001)           User time:  0.20999999999999999
(PID.TID 0000.0001)         System time:  1.00000000000000002E-002
(PID.TID 0000.0001)     Wall clock time:  0.28174996376037598
(PID.TID 0000.0001)          No. starts:           1
(PID.TID 0000.0001)           No. stops:           1
(PID.TID 0000.0001)   Seconds in section "THE_MAIN_LOOP          [THE_MODEL_MAIN]":
(PID.TID 0000.0001)           User time:   25.160000000000000
(PID.TID 0000.0001)         System time:  8.00000000000000017E-002
(PID.TID 0000.0001)     Wall clock time:   25.381845951080322
(PID.TID 0000.0001)          No. starts:           1
(PID.TID 0000.0001)           No. stops:           1
(PID.TID 0000.0001)   Seconds in section "INITIALISE_VARIA    [THE_MAIN_LOOP]":
(PID.TID 0000.0001)           User time:  0.62000000000000011
(PID.TID 0000.0001)         System time:  4.99999999999999958E-002
(PID.TID 0000.0001)     Wall clock time:  0.75407600402832031
(PID.TID 0000.0001)          No. starts:           1
(PID.TID 0000.0001)           No. stops:           1
(PID.TID 0000.0001)   Seconds in section "MAIN LOOP           [THE_MAIN_LOOP]":
(PID.TID 0000.0001)           User time:   24.539999999999999
(PID.TID 0000.0001)         System time:  2.99999999999999989E-002
(PID.TID 0000.0001)     Wall clock time:   24.627732992172241
(PID.TID 0000.0001)          No. starts:           1
(PID.TID 0000.0001)           No. stops:           1
(PID.TID 0000.0001)   Seconds in section "MAIN_DO_LOOP        [THE_MAIN_LOOP]":
(PID.TID 0000.0001)           User time:   24.540000000000006
(PID.TID 0000.0001)         System time:  2.99999999999999989E-002
(PID.TID 0000.0001)     Wall clock time:   24.627579450607300
(PID.TID 0000.0001)          No. starts:          16
(PID.TID 0000.0001)           No. stops:          16
(PID.TID 0000.0001)   Seconds in section "FORWARD_STEP        [MAIN_DO_LOOP]":
(PID.TID 0000.0001)           User time:   24.540000000000006
(PID.TID 0000.0001)         System time:  2.99999999999999989E-002
(PID.TID 0000.0001)     Wall clock time:   24.627276897430420
(PID.TID 0000.0001)          No. starts:          16
(PID.TID 0000.0001)           No. stops:          16
(PID.TID 0000.0001)   Seconds in section "DO_STATEVARS_DIAGS  [FORWARD_STEP]":
(PID.TID 0000.0001)           User time:   1.2600000000000016
(PID.TID 0000.0001)         System time:   0.0000000000000000
(PID.TID 0000.0001)     Wall clock time:   1.2790248394012451
(PID.TID 0000.0001)          No. starts:          48
(PID.TID 0000.0001)           No. stops:          48
(PID.TID 0000.0001)   Seconds in section "LOAD_FIELDS_DRIVER  [FORWARD_STEP]":
(PID.TID 0000.0001)           User time:  9.99999999999801048E-003
(PID.TID 0000.0001)         System time:   0.0000000000000000
(PID.TID 0000.0001)     Wall clock time:  4.66346740722656250E-004
(PID.TID 0000.0001)          No. starts:          16
(PID.TID 0000.0001)           No. stops:          16
(PID.TID 0000.0001)   Seconds in section "EXTERNAL_FLDS_LOAD [LOAD_FLDS_DRIVER]":
(PID.TID 0000.0001)           User time:  9.99999999999801048E-003
(PID.TID 0000.0001)         System time:   0.0000000000000000
(PID.TID 0000.0001)     Wall clock time:  1.58309936523437500E-004
(PID.TID 0000.0001)          No. starts:          16
(PID.TID 0000.0001)           No. stops:          16
(PID.TID 0000.0001)   Seconds in section "DO_ATMOSPHERIC_PHYS [FORWARD_STEP]":
(PID.TID 0000.0001)           User time:   0.0000000000000000
(PID.TID 0000.0001)         System time:   0.0000000000000000
(PID.TID 0000.0001)     Wall clock time:  1.50680541992187500E-004
(PID.TID 0000.0001)          No. starts:          16
(PID.TID 0000.0001)           No. stops:          16
(PID.TID 0000.0001)   Seconds in section "DO_OCEANIC_PHYS     [FORWARD_STEP]":
(PID.TID 0000.0001)           User time:   0.0000000000000000
(PID.TID 0000.0001)         System time:   0.0000000000000000
(PID.TID 0000.0001)     Wall clock time:  2.67672538757324219E-003
(PID.TID 0000.0001)          No. starts:          16
(PID.TID 0000.0001)           No. stops:          16
(PID.TID 0000.0001)   Seconds in section "DYNAMICS            [FORWARD_STEP]":
(PID.TID 0000.0001)           User time:   6.1400000000000041
(PID.TID 0000.0001)         System time:   0.0000000000000000
(PID.TID 0000.0001)     Wall clock time:   6.1600482463836670
(PID.TID 0000.0001)          No. starts:          16
(PID.TID 0000.0001)           No. stops:          16
(PID.TID 0000.0001)   Seconds in section "UPDATE_R_STAR       [FORWARD_STEP]":
(PID.TID 0000.0001)           User time:  0.51999999999999957
(PID.TID 0000.0001)         System time:   0.0000000000000000
(PID.TID 0000.0001)     Wall clock time:  0.50531625747680664
(PID.TID 0000.0001)          No. starts:          16
(PID.TID 0000.0001)           No. stops:          16
(PID.TID 0000.0001)   Seconds in section "UPDATE_CG2D         [FORWARD_STEP]":
(PID.TID 0000.0001)           User time:  0.26000000000000156
(PID.TID 0000.0001)         System time:   0.0000000000000000
(PID.TID 0000.0001)     Wall clock time:  0.24038410186767578
(PID.TID 0000.0001)          No. starts:          16
(PID.TID 0000.0001)           No. stops:          16
(PID.TID 0000.0001)   Seconds in section "SOLVE_FOR_PRESSURE  [FORWARD_STEP]":
(PID.TID 0000.0001)           User time:  0.99000000000000199
(PID.TID 0000.0001)         System time:   0.0000000000000000
(PID.TID 0000.0001)     Wall clock time:   1.0284917354583740
(PID.TID 0000.0001)          No. starts:          16
(PID.TID 0000.0001)           No. stops:          16
(PID.TID 0000.0001)   Seconds in section "MOM_CORRECTION_STEP [FORWARD_STEP]":
(PID.TID 0000.0001)           User time:   6.5400000000000027
(PID.TID 0000.0001)         System time:   0.0000000000000000
(PID.TID 0000.0001)     Wall clock time:   6.5352544784545898
(PID.TID 0000.0001)          No. starts:          16
(PID.TID 0000.0001)           No. stops:          16
(PID.TID 0000.0001)   Seconds in section "SHAP_FILT_UV       [MOM_CORR_STEP]":
(PID.TID 0000.0001)           User time:   6.3300000000000125
(PID.TID 0000.0001)         System time:   0.0000000000000000
(PID.TID 0000.0001)     Wall clock time:   6.3096084594726563
(PID.TID 0000.0001)          No. starts:          16
(PID.TID 0000.0001)           No. stops:          16
(PID.TID 0000.0001)   Seconds in section "INTEGR_CONTINUITY   [FORWARD_STEP]":
(PID.TID 0000.0001)           User time:  0.69999999999999574
(PID.TID 0000.0001)         System time:   0.0000000000000000
(PID.TID 0000.0001)     Wall clock time:  0.73426580429077148
(PID.TID 0000.0001)          No. starts:          16
(PID.TID 0000.0001)           No. stops:          16
(PID.TID 0000.0001)   Seconds in section "CALC_R_STAR         [FORWARD_STEP]":
(PID.TID 0000.0001)           User time:  9.99999999999978684E-002
(PID.TID 0000.0001)         System time:   0.0000000000000000
(PID.TID 0000.0001)     Wall clock time:  8.80432128906250000E-002
(PID.TID 0000.0001)          No. starts:          16
(PID.TID 0000.0001)           No. stops:          16
(PID.TID 0000.0001)   Seconds in section "BLOCKING_EXCHANGES  [FORWARD_STEP]":
(PID.TID 0000.0001)           User time:  0.25999999999999446
(PID.TID 0000.0001)         System time:   0.0000000000000000
(PID.TID 0000.0001)     Wall clock time:  0.24471998214721680
(PID.TID 0000.0001)          No. starts:          32
(PID.TID 0000.0001)           No. stops:          32
(PID.TID 0000.0001)   Seconds in section "THERMODYNAMICS      [FORWARD_STEP]":
(PID.TID 0000.0001)           User time:   3.2000000000000064
(PID.TID 0000.0001)         System time:   0.0000000000000000
(PID.TID 0000.0001)     Wall clock time:   3.1872220039367676
(PID.TID 0000.0001)          No. starts:          16
(PID.TID 0000.0001)           No. stops:          16
(PID.TID 0000.0001)   Seconds in section "TRC_CORRECTION_STEP [FORWARD_STEP]":
(PID.TID 0000.0001)           User time:  5.99999999999987210E-002
(PID.TID 0000.0001)         System time:   0.0000000000000000
(PID.TID 0000.0001)     Wall clock time:  5.79326152801513672E-002
(PID.TID 0000.0001)          No. starts:          16
(PID.TID 0000.0001)           No. stops:          16
(PID.TID 0000.0001)   Seconds in section "SHAP_FILT_TS       [TRC_CORR_STEP]":
(PID.TID 0000.0001)           User time:   0.0000000000000000
(PID.TID 0000.0001)         System time:   0.0000000000000000
(PID.TID 0000.0001)     Wall clock time:  1.59978866577148438E-004
(PID.TID 0000.0001)          No. starts:          16
(PID.TID 0000.0001)           No. stops:          16
(PID.TID 0000.0001)   Seconds in section "DO_STATEVARS_TAVE   [FORWARD_STEP]":
(PID.TID 0000.0001)           User time:   0.0000000000000000
(PID.TID 0000.0001)         System time:   0.0000000000000000
(PID.TID 0000.0001)     Wall clock time:  1.57833099365234375E-004
(PID.TID 0000.0001)          No. starts:          16
(PID.TID 0000.0001)           No. stops:          16
(PID.TID 0000.0001)   Seconds in section "MONITOR             [FORWARD_STEP]":
(PID.TID 0000.0001)           User time:   4.4000000000000021
(PID.TID 0000.0001)         System time:  1.00000000000000089E-002
(PID.TID 0000.0001)     Wall clock time:   4.4353113174438477
(PID.TID 0000.0001)          No. starts:          16
(PID.TID 0000.0001)           No. stops:          16
(PID.TID 0000.0001)   Seconds in section "DO_THE_MODEL_IO     [FORWARD_STEP]":
(PID.TID 0000.0001)           User time:  5.00000000000007105E-002
(PID.TID 0000.0001)         System time:  9.99999999999999500E-003
(PID.TID 0000.0001)     Wall clock time:  5.94422817230224609E-002
(PID.TID 0000.0001)          No. starts:          16
(PID.TID 0000.0001)           No. stops:          16
(PID.TID 0000.0001)   Seconds in section "DO_WRITE_PICKUP     [FORWARD_STEP]":
(PID.TID 0000.0001)           User time:  5.00000000000007105E-002
(PID.TID 0000.0001)         System time:  9.99999999999999500E-003
(PID.TID 0000.0001)     Wall clock time:  6.48188591003417969E-002
(PID.TID 0000.0001)          No. starts:          16
(PID.TID 0000.0001)           No. stops:          16
(PID.TID 0000.0001) // ======================================================
(PID.TID 0000.0001) // Tile <-> Tile communication statistics
(PID.TID 0000.0001) // ======================================================
(PID.TID 0000.0001) // o Tile number: 000001
(PID.TID 0000.0001) //         No. X exchanges =              0
(PID.TID 0000.0001) //            Max. X spins =              0
(PID.TID 0000.0001) //            Min. X spins =     1000000000
(PID.TID 0000.0001) //          Total. X spins =              0
(PID.TID 0000.0001) //            Avg. X spins =       0.00E+00
(PID.TID 0000.0001) //         No. Y exchanges =              0
(PID.TID 0000.0001) //            Max. Y spins =              0
(PID.TID 0000.0001) //            Min. Y spins =     1000000000
(PID.TID 0000.0001) //          Total. Y spins =              0
(PID.TID 0000.0001) //            Avg. Y spins =       0.00E+00
(PID.TID 0000.0001) // o Tile number: 000002
(PID.TID 0000.0001) //         No. X exchanges =              0
(PID.TID 0000.0001) //            Max. X spins =              0
(PID.TID 0000.0001) //            Min. X spins =     1000000000
(PID.TID 0000.0001) //          Total. X spins =              0
(PID.TID 0000.0001) //            Avg. X spins =       0.00E+00
(PID.TID 0000.0001) //         No. Y exchanges =              0
(PID.TID 0000.0001) //            Max. Y spins =              0
(PID.TID 0000.0001) //            Min. Y spins =     1000000000
(PID.TID 0000.0001) //          Total. Y spins =              0
(PID.TID 0000.0001) //            Avg. Y spins =       0.00E+00
(PID.TID 0000.0001) // o Tile number: 000003
(PID.TID 0000.0001) //         No. X exchanges =              0
(PID.TID 0000.0001) //            Max. X spins =              0
(PID.TID 0000.0001) //            Min. X spins =     1000000000
(PID.TID 0000.0001) //          Total. X spins =              0
(PID.TID 0000.0001) //            Avg. X spins =       0.00E+00
(PID.TID 0000.0001) //         No. Y exchanges =              0
(PID.TID 0000.0001) //            Max. Y spins =              0
(PID.TID 0000.0001) //            Min. Y spins =     1000000000
(PID.TID 0000.0001) //          Total. Y spins =              0
(PID.TID 0000.0001) //            Avg. Y spins =       0.00E+00
(PID.TID 0000.0001) // o Tile number: 000004
(PID.TID 0000.0001) //         No. X exchanges =              0
(PID.TID 0000.0001) //            Max. X spins =              0
(PID.TID 0000.0001) //            Min. X spins =     1000000000
(PID.TID 0000.0001) //          Total. X spins =              0
(PID.TID 0000.0001) //            Avg. X spins =       0.00E+00
(PID.TID 0000.0001) //         No. Y exchanges =              0
(PID.TID 0000.0001) //            Max. Y spins =              0
(PID.TID 0000.0001) //            Min. Y spins =     1000000000
(PID.TID 0000.0001) //          Total. Y spins =              0
(PID.TID 0000.0001) //            Avg. Y spins =       0.00E+00
(PID.TID 0000.0001) // o Tile number: 000005
(PID.TID 0000.0001) //         No. X exchanges =              0
(PID.TID 0000.0001) //            Max. X spins =              0
(PID.TID 0000.0001) //            Min. X spins =     1000000000
(PID.TID 0000.0001) //          Total. X spins =              0
(PID.TID 0000.0001) //            Avg. X spins =       0.00E+00
(PID.TID 0000.0001) //         No. Y exchanges =              0
(PID.TID 0000.0001) //            Max. Y spins =              0
(PID.TID 0000.0001) //            Min. Y spins =     1000000000
(PID.TID 0000.0001) //          Total. Y spins =              0
(PID.TID 0000.0001) //            Avg. Y spins =       0.00E+00
(PID.TID 0000.0001) // o Tile number: 000006
(PID.TID 0000.0001) //         No. X exchanges =              0
(PID.TID 0000.0001) //            Max. X spins =              0
(PID.TID 0000.0001) //            Min. X spins =     1000000000
(PID.TID 0000.0001) //          Total. X spins =              0
(PID.TID 0000.0001) //            Avg. X spins =       0.00E+00
(PID.TID 0000.0001) //         No. Y exchanges =              0
(PID.TID 0000.0001) //            Max. Y spins =              0
(PID.TID 0000.0001) //            Min. Y spins =     1000000000
(PID.TID 0000.0001) //          Total. Y spins =              0
(PID.TID 0000.0001) //            Avg. Y spins =       0.00E+00
(PID.TID 0000.0001) // o Thread number: 000001
(PID.TID 0000.0001) //            No. barriers =           8020
(PID.TID 0000.0001) //      Max. barrier spins =              1
(PID.TID 0000.0001) //      Min. barrier spins =              1
(PID.TID 0000.0001) //     Total barrier spins =           8020
(PID.TID 0000.0001) //      Avg. barrier spins =       1.00E+00
PROGRAM MAIN: Execution ended Normally
