(PID.TID 0000.0001) 
(PID.TID 0000.0001) // ======================================================
(PID.TID 0000.0001) //                      MITgcm UV
(PID.TID 0000.0001) //                      =========
(PID.TID 0000.0001) // ======================================================
(PID.TID 0000.0001) // execution environment starting up...
(PID.TID 0000.0001) 
(PID.TID 0000.0001) // MITgcmUV version:  checkpoint65z
(PID.TID 0000.0001) // Build user:        jmc
(PID.TID 0000.0001) // Build host:        baudelaire
(PID.TID 0000.0001) // Build date:        Fri Oct  7 14:38:20 EDT 2016
(PID.TID 0000.0001) 
(PID.TID 0000.0001) // =======================================================
(PID.TID 0000.0001) // Execution Environment parameter file "eedata"
(PID.TID 0000.0001) // =======================================================
(PID.TID 0000.0001) ># Example "eedata" file
(PID.TID 0000.0001) ># Lines beginning "#" are comments
(PID.TID 0000.0001) >#  nTx      :: No. threads per process in X
(PID.TID 0000.0001) >#  nTy      :: No. threads per process in Y
(PID.TID 0000.0001) ># debugMode :: print debug msg (sequence of S/R calls)
(PID.TID 0000.0001) ># useCubedSphereExchange :: use Cubed-Sphere type topology for EXCH
(PID.TID 0000.0001) > &EEPARMS
(PID.TID 0000.0001) > useCoupler=.TRUE.,
(PID.TID 0000.0001) > useCubedSphereExchange=.TRUE.,
(PID.TID 0000.0001) >#debugMode=.TRUE.,
(PID.TID 0000.0001) ># Activate one line below to support 2, 3 or 6 way multi-threading
(PID.TID 0000.0001) > nTx=1,
(PID.TID 0000.0001) >#nTx=2,
(PID.TID 0000.0001) >#nTx=3,
(PID.TID 0000.0001) >#nTx=6,
(PID.TID 0000.0001) > /
(PID.TID 0000.0001) ># Note: Some systems use & as the namelist terminator (as shown here).
(PID.TID 0000.0001) >#       Other systems use a / character.
(PID.TID 0000.0001) 
(PID.TID 0000.0001) // =======================================================
(PID.TID 0000.0001) // Computational Grid Specification ( see files "SIZE.h" )
(PID.TID 0000.0001) //                                  ( and "eedata"       )
(PID.TID 0000.0001) // =======================================================
(PID.TID 0000.0001)      nPx =    1 ; /* No. processes in X */
(PID.TID 0000.0001)      nPy =    1 ; /* No. processes in Y */
(PID.TID 0000.0001)      nSx =    6 ; /* No. tiles in X per process */
(PID.TID 0000.0001)      nSy =    1 ; /* No. tiles in Y per process */
(PID.TID 0000.0001)      sNx =   32 ; /* Tile size in X */
(PID.TID 0000.0001)      sNy =   32 ; /* Tile size in Y */
(PID.TID 0000.0001)      OLx =    2 ; /* Tile overlap distance in X */
(PID.TID 0000.0001)      OLy =    2 ; /* Tile overlap distance in Y */
(PID.TID 0000.0001)      nTx =    1 ; /* No. threads in X per process */
(PID.TID 0000.0001)      nTy =    1 ; /* No. threads in Y per process */
(PID.TID 0000.0001)       Nr =    5 ; /* No. levels in the vertical   */
(PID.TID 0000.0001)       Nx =  192 ; /* Total domain size in X ( = nPx*nSx*sNx ) */
(PID.TID 0000.0001)       Ny =   32 ; /* Total domain size in Y ( = nPy*nSy*sNy ) */
(PID.TID 0000.0001)   nTiles =    6 ; /* Total no. tiles per process ( = nSx*nSy ) */
(PID.TID 0000.0001)   nProcs =    1 ; /* Total no. processes ( = nPx*nPy ) */
(PID.TID 0000.0001) nThreads =    1 ; /* Total no. threads per process ( = nTx*nTy ) */
(PID.TID 0000.0001) usingMPI =    T ; /* Flag used to control whether MPI is in use */
(PID.TID 0000.0001)                   /*  note: To execute a program with MPI calls */
(PID.TID 0000.0001)                   /*  it must be launched appropriately e.g     */
(PID.TID 0000.0001)                   /*  "mpirun -np 64 ......"                    */
(PID.TID 0000.0001) useCoupler=    T ;/* Flag used to control communications with   */
(PID.TID 0000.0001)                   /*  other model components, through a coupler */
(PID.TID 0000.0001) debugMode =    F ; /* print debug msg. (sequence of S/R calls)  */
(PID.TID 0000.0001) printMapIncludesZeros=    F ; /* print zeros in Std.Output maps */
(PID.TID 0000.0001) maxLengthPrt1D=   65 /* maxLength of 1D array printed to StdOut */
(PID.TID 0000.0001) 
(PID.TID 0000.0001) ======= Starting MPI parallel Run =========
(PID.TID 0000.0001)  My Processor Name (len: 10 ) = baudelaire
(PID.TID 0000.0001)  Located at (  0,  0) on processor grid (0:  0,0:  0)
(PID.TID 0000.0001)  Origin at  (     1,     1) on global grid (1:   192,1:    32)
(PID.TID 0000.0001)  North neighbor = processor 0000
(PID.TID 0000.0001)  South neighbor = processor 0000
(PID.TID 0000.0001)   East neighbor = processor 0000
(PID.TID 0000.0001)   West neighbor = processor 0000
(PID.TID 0000.0001) // ======================================================
(PID.TID 0000.0001) // Mapping of tiles to threads
(PID.TID 0000.0001) // ======================================================
(PID.TID 0000.0001) // -o- Thread   1, tiles (   1:   6,   1:   1)
(PID.TID 0000.0001) 
(PID.TID 0000.0001) W2_READPARMS: file data.exch2 not found
(PID.TID 0000.0001) => use W2_EXCH2 default: regular 6-facets Cube
(PID.TID 0000.0001) W2_useE2ioLayOut=    T ;/* T: use Exch2 glob IO map; F: use model default */
(PID.TID 0000.0001) W2_mapIO        =  -1 ; /* select option for Exch2 global-IO map */
(PID.TID 0000.0001) W2_printMsg     =  -1 ; /* select option for printing information */
(PID.TID 0000.0001) ===== Start setting W2 TOPOLOGY:
(PID.TID 0000.0001)  write to log-file: w2_tile_topology.0000.log
(PID.TID 0000.0001) =====       setting W2 TOPOLOGY: Done
(PID.TID 0000.0001) 
(PID.TID 0000.0001)  INI_PARMS: opening model parameter file "data"
(PID.TID 0000.0001)  OPEN_COPY_DATA_FILE: opening file data
(PID.TID 0000.0001) // =======================================================
(PID.TID 0000.0001) // Parameter file "data"
(PID.TID 0000.0001) // =======================================================
(PID.TID 0000.0001) ># ====================
(PID.TID 0000.0001) ># | Model parameters |
(PID.TID 0000.0001) ># ====================
(PID.TID 0000.0001) >#
(PID.TID 0000.0001) ># Continuous equation parameters
(PID.TID 0000.0001) > &PARM01
(PID.TID 0000.0001) > tRef=289.6, 298.1, 314.5, 335.8, 437.4,
(PID.TID 0000.0001) > sRef=5*0.,
(PID.TID 0000.0001) > no_slip_sides=.FALSE.,
(PID.TID 0000.0001) > no_slip_bottom=.FALSE.,
(PID.TID 0000.0001) > buoyancyRelation='ATMOSPHERIC',
(PID.TID 0000.0001) > eosType='IDEALG',
(PID.TID 0000.0001) > atm_Rq=0.6078E-3,
(PID.TID 0000.0001) > integr_GeoPot=2,
(PID.TID 0000.0001) > selectFindRoSurf=1,
(PID.TID 0000.0001) > gravity=9.81,
(PID.TID 0000.0001) > rhoConstFresh=1000.,
(PID.TID 0000.0001) > implicitFreeSurface=.TRUE.,
(PID.TID 0000.0001) > exactConserv=.TRUE.,
(PID.TID 0000.0001) > select_rStar=2,
(PID.TID 0000.0001) > nonlinFreeSurf=4,
(PID.TID 0000.0001) > hFacInf=0.2,
(PID.TID 0000.0001) > hFacSup=2.0,
(PID.TID 0000.0001) > uniformLin_PhiSurf=.FALSE.,
(PID.TID 0000.0001) > hFacMin=0.2,
(PID.TID 0000.0001) > saltAdvScheme=3,
(PID.TID 0000.0001) > vectorInvariantMomentum=.TRUE.,
(PID.TID 0000.0001) > useJamartWetPoints=.TRUE.,
(PID.TID 0000.0001) > staggerTimeStep=.TRUE.,
(PID.TID 0000.0001) > readBinaryPrec=64,
(PID.TID 0000.0001) > writeBinaryPrec=64,
(PID.TID 0000.0001) > debugLevel=2,
(PID.TID 0000.0001) > /
(PID.TID 0000.0001) >
(PID.TID 0000.0001) ># Elliptic solver parameters
(PID.TID 0000.0001) > &PARM02
(PID.TID 0000.0001) > cg2dMaxIters=200,
(PID.TID 0000.0001) >#cg2dTargetResidual=1.E-12,
(PID.TID 0000.0001) > cg2dTargetResWunit=1.E-17,
(PID.TID 0000.0001) > /
(PID.TID 0000.0001) >
(PID.TID 0000.0001) ># Time stepping parameters
(PID.TID 0000.0001) > &PARM03
(PID.TID 0000.0001) > nIter0=0,
(PID.TID 0000.0001) > nTimeSteps=40,
(PID.TID 0000.0001) ># 10yr:
(PID.TID 0000.0001) >#endTime=311040000.,
(PID.TID 0000.0001) > deltaT=450.0,
(PID.TID 0000.0001) > abEps=0.1,
(PID.TID 0000.0001) > forcing_In_AB=.FALSE.,
(PID.TID 0000.0001) > cAdjFreq=0.,
(PID.TID 0000.0001) > pChkptFreq=2592000.,
(PID.TID 0000.0001) > taveFreq=2592000.,
(PID.TID 0000.0001) > dumpFreq=2592000.,
(PID.TID 0000.0001) > monitorFreq=86400.,
(PID.TID 0000.0001) > monitorFreq=1.,
(PID.TID 0000.0001) > /
(PID.TID 0000.0001) >
(PID.TID 0000.0001) ># Gridding parameters
(PID.TID 0000.0001) > &PARM04
(PID.TID 0000.0001) > usingCurvilinearGrid=.TRUE.,
(PID.TID 0000.0001) > horizGridFile='grid_cs32',
(PID.TID 0000.0001) > radius_fromHorizGrid=6370.E3,
(PID.TID 0000.0001) > delR=100.E2, 250.E2, 300.E2, 200.E2, 150.E2,
(PID.TID 0000.0001) > /
(PID.TID 0000.0001) >
(PID.TID 0000.0001) ># Input datasets
(PID.TID 0000.0001) > &PARM05
(PID.TID 0000.0001) > topoFile='topo.cpl_FM.bin',
(PID.TID 0000.0001) > /
(PID.TID 0000.0001) 
(PID.TID 0000.0001)  INI_PARMS ; starts to read PARM01
(PID.TID 0000.0001)  INI_PARMS ; read PARM01 : OK
(PID.TID 0000.0001)  INI_PARMS ; starts to read PARM02
(PID.TID 0000.0001)  INI_PARMS ; read PARM02 : OK
(PID.TID 0000.0001)  INI_PARMS ; starts to read PARM03
(PID.TID 0000.0001)  INI_PARMS ; read PARM03 : OK
(PID.TID 0000.0001)  INI_PARMS ; starts to read PARM04
(PID.TID 0000.0001)  INI_PARMS ; read PARM04 : OK
(PID.TID 0000.0001)  INI_PARMS ; starts to read PARM05
(PID.TID 0000.0001)  INI_PARMS ; read PARM05 : OK
(PID.TID 0000.0001)  INI_PARMS: finished reading file "data"
(PID.TID 0000.0001)  PACKAGES_BOOT: opening data.pkg
(PID.TID 0000.0001)  OPEN_COPY_DATA_FILE: opening file data.pkg
(PID.TID 0000.0001) // =======================================================
(PID.TID 0000.0001) // Parameter file "data.pkg"
(PID.TID 0000.0001) // =======================================================
(PID.TID 0000.0001) ># Packages
(PID.TID 0000.0001) >#     useAIM  :: use Atmospheric Intermediate complexity Model
(PID.TID 0000.0001) >#     useLand :: use (simple) Land package to compute surf. BC over land
(PID.TID 0000.0001) >#   useThSIce :: use Therm. SeaIce package (+slab ocean)
(PID.TID 0000.0001) > &PACKAGES
(PID.TID 0000.0001) > useAIM=.TRUE.,
(PID.TID 0000.0001) > useLand=.TRUE.,
(PID.TID 0000.0001) > useThSIce=.TRUE.,
(PID.TID 0000.0001) > useSHAP_FILT=.TRUE.,
(PID.TID 0000.0001) >#useMNC=.TRUE.,
(PID.TID 0000.0001) > /
(PID.TID 0000.0001) 
(PID.TID 0000.0001)  PACKAGES_BOOT: finished reading data.pkg
(PID.TID 0000.0001)  PACKAGES_BOOT: On/Off package Summary
 --------  pkgs with a standard "usePKG" On/Off switch in "data.pkg":  --------
 pkg/shap_filt            compiled   and   used ( useSHAP_FILT             = T )
 pkg/thsice               compiled   and   used ( useThSIce                = T )
 pkg/land                 compiled   and   used ( useLand                  = T )
 pkg/aim_v23              compiled   and   used ( useAIM                   = T )
 pkg/diagnostics          compiled but not used ( useDiagnostics           = F )
 pkg/mnc                  compiled but not used ( useMNC                   = F )
 -------- pkgs without standard "usePKG" On/Off switch in "data.pkg":  --------
 pkg/generic_advdiff      compiled   and   used ( useGAD                   = T )
 pkg/mom_common           compiled   and   used ( momStepping              = T )
 pkg/mom_vecinv           compiled   and   used ( +vectorInvariantMomentum = T )
 pkg/monitor              compiled   and   used ( monitorFreq > 0.         = T )
 pkg/timeave              compiled   and   used ( taveFreq > 0.            = T )
 pkg/debug                compiled but not used ( debugMode                = F )
 pkg/compon_communic      compiled   and   used ( useCoupler               = T )
 pkg/atm_compon_interf    compiled   and   used ( useCoupler               = T )
 pkg/exch2                compiled   and   used
 pkg/rw                   compiled   and   used
 pkg/mdsio                compiled   and   used
 pkg/atm_common           compiled   ( used ? )
(PID.TID 0000.0001)  PACKAGES_BOOT: End of package Summary
(PID.TID 0000.0001) 
 CPL_IMPORT_CPLPARMS: Recv parBuf=     0     2     3     0     0     0
(PID.TID 0000.0001)  SHAP_FILT_READPARMS: opening data.shap
(PID.TID 0000.0001)  OPEN_COPY_DATA_FILE: opening file data.shap
(PID.TID 0000.0001) // =======================================================
(PID.TID 0000.0001) // Parameter file "data.shap"
(PID.TID 0000.0001) // =======================================================
(PID.TID 0000.0001) ># Shapiro Filter parameters
(PID.TID 0000.0001) > &SHAP_PARM01
(PID.TID 0000.0001) > shap_filt_uvStar=.FALSE.,
(PID.TID 0000.0001) > shap_filt_TrStagg=.TRUE.,
(PID.TID 0000.0001) > Shap_funct=2,
(PID.TID 0000.0001) > nShapT=4,
(PID.TID 0000.0001) > nShapUV=4,
(PID.TID 0000.0001) > nShapTrPhys=1,
(PID.TID 0000.0001) > nShapUVPhys=0,
(PID.TID 0000.0001) > Shap_TrLength=140000.,
(PID.TID 0000.0001) >#Shap_uvLength=140000.,
(PID.TID 0000.0001) > Shap_Trtau=5400.,
(PID.TID 0000.0001) > Shap_uvtau=1800.,
(PID.TID 0000.0001) >#Shap_diagFreq=2592000.,
(PID.TID 0000.0001) > /
(PID.TID 0000.0001) 
(PID.TID 0000.0001)  SHAP_FILT_READPARMS: finished reading data.shap
(PID.TID 0000.0001) Shap_funct =   /* select Shapiro filter function */
(PID.TID 0000.0001)                       2
(PID.TID 0000.0001)     ;
(PID.TID 0000.0001) nShapT =   /* power of Shapiro filter for Temperat */
(PID.TID 0000.0001)                       4
(PID.TID 0000.0001)     ;
(PID.TID 0000.0001) nShapS =   /* power of Shapiro filter for Salinity */
(PID.TID 0000.0001)                       4
(PID.TID 0000.0001)     ;
(PID.TID 0000.0001) nShapUV =   /* power of Shapiro filter for momentum */
(PID.TID 0000.0001)                       4
(PID.TID 0000.0001)     ;
(PID.TID 0000.0001) shap_filt_uvStar = /* apply filter before Press. Solver */
(PID.TID 0000.0001)                   F
(PID.TID 0000.0001)     ;
(PID.TID 0000.0001) shap_filt_TrStagg = /* filter T,S before calc PhiHyd (staggerTimeStep) */
(PID.TID 0000.0001)                   T
(PID.TID 0000.0001)     ;
(PID.TID 0000.0001) Shap_alwaysExchUV = /* always exch(U,V)    nShapUV times*/
(PID.TID 0000.0001)                   F
(PID.TID 0000.0001)     ;
(PID.TID 0000.0001) Shap_alwaysExchTr = /* always exch(Tracer) nShapTr times*/
(PID.TID 0000.0001)                   F
(PID.TID 0000.0001)     ;
(PID.TID 0000.0001) nShapTrPhys =   /* power of physical-space filter (Tracer) */
(PID.TID 0000.0001)                       1
(PID.TID 0000.0001)     ;
(PID.TID 0000.0001) nShapUVPhys =   /* power of physical-space filter (Momentum) */
(PID.TID 0000.0001)                       0
(PID.TID 0000.0001)     ;
(PID.TID 0000.0001) Shap_Trtau =   /* time scale of Shapiro filter (Tracer) */
(PID.TID 0000.0001)                 5.400000000000000E+03
(PID.TID 0000.0001)     ;
(PID.TID 0000.0001) Shap_TrLength =   /* Length scale of Shapiro filter (Tracer) */
(PID.TID 0000.0001)                 1.400000000000000E+05
(PID.TID 0000.0001)     ;
(PID.TID 0000.0001) Shap_uvtau =   /* time scale of Shapiro filter (Momentum) */
(PID.TID 0000.0001)                 1.800000000000000E+03
(PID.TID 0000.0001)     ;
(PID.TID 0000.0001) Shap_uvLength =   /* Length scale of Shapiro filter (Momentum) */
(PID.TID 0000.0001)                 0.000000000000000E+00
(PID.TID 0000.0001)     ;
(PID.TID 0000.0001) Shap_noSlip =  /* No-slip parameter (0=Free-slip ; 1=No-slip)*/
(PID.TID 0000.0001)                 0.000000000000000E+00
(PID.TID 0000.0001)     ;
(PID.TID 0000.0001) Shap_diagFreq =   /* Frequency^-1 for diagnostic output (s)*/
(PID.TID 0000.0001)                 0.000000000000000E+00
(PID.TID 0000.0001)     ;
(PID.TID 0000.0001)  THSICE_READPARMS: opening data.ice
(PID.TID 0000.0001)  OPEN_COPY_DATA_FILE: opening file data.ice
(PID.TID 0000.0001) // =======================================================
(PID.TID 0000.0001) // Parameter file "data.ice"
(PID.TID 0000.0001) // =======================================================
(PID.TID 0000.0001) > &THSICE_CONST
(PID.TID 0000.0001) > Tf0kel  = 273.15,
(PID.TID 0000.0001) > rhosw   = 1030.,
(PID.TID 0000.0001) >#- with LANL albedo:
(PID.TID 0000.0001) >#albWarmSnow= 0.75,
(PID.TID 0000.0001) > iceMaskMin = 0.01,
(PID.TID 0000.0001) > hThinIce   = 0.1,
(PID.TID 0000.0001) > hiMax      = 10.,
(PID.TID 0000.0001) > hsMax      = 10.,
(PID.TID 0000.0001) >#albIceMax  = 0.7,
(PID.TID 0000.0001) >#albIceMin  = 0.7,
(PID.TID 0000.0001) > /
(PID.TID 0000.0001) >
(PID.TID 0000.0001) > &THSICE_PARM01
(PID.TID 0000.0001) >#startIceModel=1,
(PID.TID 0000.0001) >#stepFwd_oceMxL=.TRUE.,
(PID.TID 0000.0001) > ocean_deltaT=3600.,
(PID.TID 0000.0001) >#tauRelax_MxL=5184000.,
(PID.TID 0000.0001) >#thSIceAdvScheme=1,
(PID.TID 0000.0001) >#thSIce_diffK   =800.,
(PID.TID 0000.0001) > stressReduction=0.,
(PID.TID 0000.0001) >#thSIce_taveFreq=2592000.,
(PID.TID 0000.0001) > thSIce_diagFreq=5184000.,
(PID.TID 0000.0001) >#thSIce_monFreq=864000.,
(PID.TID 0000.0001) >#thSIce_diagFreq=0.,
(PID.TID 0000.0001) > /
(PID.TID 0000.0001) >
(PID.TID 0000.0001) 
(PID.TID 0000.0001)  THSICE_READPARMS: read THSICE_CONST
(PID.TID 0000.0001)  THSICE_READPARMS: read THSICE_PARM01
 ThSI:       rhos        =  3.3000000000000E+02
 ThSI:       rhoi        =  9.0000000000000E+02
 ThSI:       rhosw       =  1.0300000000000E+03
 ThSI:       rhofw       =  1.0000000000000E+03
 ThSI:       floodFac    =  3.9393939393939E-01
 ThSI:       cpIce       =  2.1060000000000E+03
 ThSI:       cpWater     =  3.9940000000000E+03
 ThSI:       kIce        =  2.0300000000000E+00
 ThSI:       kSnow       =  3.0000000000000E-01
 ThSI:       bMeltCoef   =  6.0000000000000E-03
 ThSI:       Lfresh      =  3.3400000000000E+05
 ThSI:       qsnow       =  3.3400000000000E+05
 ThSI:       albColdSnow =  8.5000000000000E-01
 ThSI:       albWarmSnow =  7.0000000000000E-01
 ThSI:       tempSnowAlb = -1.0000000000000E+01
 ThSI:       albOldSnow  =  5.5000000000000E-01
 ThSI:       hNewSnowAge =  2.0000000000000E-03
 ThSI:       snowAgTime  =  4.3200000000000E+06
 ThSI:       albIceMax   =  6.5000000000000E-01
 ThSI:       albIceMin   =  2.0000000000000E-01
 ThSI:       hAlbIce     =  5.0000000000000E-01
 ThSI:       hAlbSnow    =  3.0000000000000E-01
 ThSI:       i0swFrac    =  3.0000000000000E-01
 ThSI:       ksolar      =  1.5000000000000E+00
 ThSI:       dhSnowLin   =  0.0000000000000E+00
 ThSI:       saltIce     =  4.0000000000000E+00
 ThSI:       S_winton    =  1.0000000000000E+00
 ThSI:       mu_Tf       =  5.4000000000000E-02
 ThSI:       Tf0kel      =  2.7315000000000E+02
 ThSI:       Tmlt1       = -5.4000000000000E-02
 ThSI:       Terrmax     =  5.0000000000000E-01
 ThSI:       nitMaxTsf   =        20
 ThSI:       hIceMin     =  1.0000000000000E-02
 ThSI:       hiMax       =  1.0000000000000E+01
 ThSI:       hsMax       =  1.0000000000000E+01
 ThSI:       iceMaskMax  =  1.0000000000000E+00
 ThSI:       iceMaskMin  =  1.0000000000000E-02
 ThSI:       fracEnMelt  =  4.0000000000000E-01
 ThSI:       fracEnFreez =  0.0000000000000E+00
 ThSI:       hThinIce    =  1.0000000000000E-01
 ThSI:       hThickIce   =  2.5000000000000E+00
 ThSI:       hNewIceMax  =  1.0000000000000E+01
 ThSI: stressReduction   =  0.0000000000000E+00
 ThSI: thSIce_skipThermo =         F
 ThSI: thSIceAdvScheme   =         0
 ThSI: thSIceBalanceAtmFW=         0
 ThSI: thSIce_diffK      =  0.0000000000000E+00
 ThSI: thSIce_deltaT     =  4.5000000000000E+02
 ThSI: ocean_deltaT      =  3.6000000000000E+03
 ThSI: stepFwd_oceMxL    =         F
 ThSI: tauRelax_MxL      =  0.0000000000000E+00
 ThSI: tauRelax_MxL_salt =  0.0000000000000E+00
 ThSI: hMxL_default      =  5.0000000000000E+01
 ThSI: sMxL_default      =  3.5000000000000E+01
 ThSI: vMxL_default      =  5.0000000000000E-02
 ThSI: thSIce_taveFreq   =  2.5920000000000E+06
 ThSI: thSIce_diagFreq   =  5.1840000000000E+06
 ThSI: thSIce_monFreq    =  1.0000000000000E+00
 ThSI: startIceModel     =         0
(PID.TID 0000.0001)  LAND_READPARMS: opening data.land
(PID.TID 0000.0001)  OPEN_COPY_DATA_FILE: opening file data.land
(PID.TID 0000.0001) // =======================================================
(PID.TID 0000.0001) // Parameter file "data.land"
(PID.TID 0000.0001) // =======================================================
(PID.TID 0000.0001) ># Land package parameters:
(PID.TID 0000.0001) >
(PID.TID 0000.0001) >#--  Land model parameter (namelist LAND_MODEL_PAR):
(PID.TID 0000.0001) >#     land_calc_grT  :: step forward ground Temperature
(PID.TID 0000.0001) >#     land_calc_grW  :: step forward soil moiture
(PID.TID 0000.0001) >#     land_impl_grT  :: solve ground Temperature implicitly
(PID.TID 0000.0001) >#     land_calc_snow :: step forward snow thickness
(PID.TID 0000.0001) >#     land_calc_alb  :: compute albedo of snow over land
(PID.TID 0000.0001) >#     land_oldPickup :: restart from an old pickup (=before checkpoint 52l)
(PID.TID 0000.0001) >#     land_grT_iniFile  :: File containing initial ground Temp.
(PID.TID 0000.0001) >#     land_grW_iniFile  :: File containing initial ground Water.
(PID.TID 0000.0001) >#     land_snow_iniFile :: File containing initial snow thickness.
(PID.TID 0000.0001) >#     land_deltaT   :: land model time-step
(PID.TID 0000.0001) >#     land_taveFreq :: Frequency^-1 for time-Aver. output (s)
(PID.TID 0000.0001) >#     land_diagFreq :: Frequency^-1 for diagnostic output (s)
(PID.TID 0000.0001) >#     land_monFreq  :: Frequency^-1 for monitor    output (s)
(PID.TID 0000.0001) >#     land_dzF      :: layer thickness
(PID.TID 0000.0001) > &LAND_MODEL_PAR
(PID.TID 0000.0001) ># land_calc_grT =.FALSE.,
(PID.TID 0000.0001) ># land_calc_grW =.FALSE.,
(PID.TID 0000.0001) ># land_impl_grT =.FALSE.,
(PID.TID 0000.0001) ># land_calc_snow=.FALSE.,
(PID.TID 0000.0001) ># land_calc_alb =.FALSE.,
(PID.TID 0000.0001) >  land_grT_iniFile='land_grT_ini.cpl.bin',
(PID.TID 0000.0001) >  land_grW_iniFile='land_grW_ini.mn.bin',
(PID.TID 0000.0001) >  land_snow_iniFile='land_snw_ini.cpl.bin',
(PID.TID 0000.0001) ># land_oldPickup=.TRUE.,
(PID.TID 0000.0001) >  land_dzF= 0.1, 4.0,
(PID.TID 0000.0001) ># land_diagFreq=2592000.,
(PID.TID 0000.0001) > /
(PID.TID 0000.0001) >
(PID.TID 0000.0001) >#--  Physical constants (namelist LAND_PHYS_PAR):
(PID.TID 0000.0001) >#     land_grdLambda  :: Thermal conductivity of the ground (W/m/K)
(PID.TID 0000.0001) >#     land_heatCs     :: Heat capacity of dry soil (J/m3/K)
(PID.TID 0000.0001) >#     land_CpWater    :: Heat capacity of water    (J/kg/K)
(PID.TID 0000.0001) >#     land_wTauDiff   :: soil moisture diffusion time scale
(PID.TID 0000.0001) >#     land_waterCap   :: field capacity per meter of soil
(PID.TID 0000.0001) >#     land_fractRunOff:: fraction of water in excess which run-off
(PID.TID 0000.0001) >#     land_rhoLiqW    :: density of liquid water (kg/m3)
(PID.TID 0000.0001) >#     land_rhoSnow    :: density of snow (kg/m3)
(PID.TID 0000.0001) >#     land_Lfreez     :: Latent heat of freezing (J/kg)
(PID.TID 0000.0001) >#     land_hMaxSnow   :: Maximum snow-thickness  (m)
(PID.TID 0000.0001) >#     diffKsnow       :: thermal conductivity of snow (W/m/K)
(PID.TID 0000.0001) >#     timeSnowAge     :: snow aging time scale   (s)
(PID.TID 0000.0001) >#     hNewSnowAge     :: new snow thickness that refresh the snow-age (by 1/e)
(PID.TID 0000.0001) >#     albColdSnow     :: albedo of cold (=dry) new snow (Tsfc < -10)
(PID.TID 0000.0001) >#     albWarmSnow     :: albedo of warm (=wet) new snow (Tsfc = 0)
(PID.TID 0000.0001) >#     albOldSnow      :: albedo of old snow (snowAge > 35.d)
(PID.TID 0000.0001) >#     hAlbSnow        :: snow thickness for albedo transition: snow/ground
(PID.TID 0000.0001) > &LAND_PHYS_PAR
(PID.TID 0000.0001) ># land_Lfreez=0.,
(PID.TID 0000.0001) >  land_hMaxSnow=10.,
(PID.TID 0000.0001) > /
(PID.TID 0000.0001) 
(PID.TID 0000.0001)  LAND_READPARMS: finished reading data.land
(PID.TID 0000.0001)  CPL_READPARMS: opening data.cpl
(PID.TID 0000.0001)  OPEN_COPY_DATA_FILE: opening file data.cpl
(PID.TID 0000.0001) // =======================================================
(PID.TID 0000.0001) // Parameter file "data.cpl"
(PID.TID 0000.0001) // =======================================================
(PID.TID 0000.0001) ># Coupling package parameters, ATM component:
(PID.TID 0000.0001) >#    cpl_oldPickup   :: restart from an old pickup (= until ckpt 59h)
(PID.TID 0000.0001) >#    useImportMxlD   :: True => use Imported Mix.Layer Detph from coupler
(PID.TID 0000.0001) >#    useImportSST    :: True => use the Imported SST from coupler
(PID.TID 0000.0001) >#    useImportSSS    :: True => use the Imported SSS from coupler
(PID.TID 0000.0001) >#    useImportVsq    :: True => use the Imported Surf. velocity^2
(PID.TID 0000.0001) >#    useImportThSIce :: True => use the Imported thSIce state var from coupler
(PID.TID 0000.0001) >#    useImportFlxCO2 :: True => use the Imported air-sea CO2 flux from coupler
(PID.TID 0000.0001) >#    cpl_atmSendFrq  :: Frequency^-1 for sending data to coupler (s)
(PID.TID 0000.0001) >#    maxNumberPrint  :: max number of printed Exp/Imp messages
(PID.TID 0000.0001) > &CPL_ATM_PARAM
(PID.TID 0000.0001) ># cpl_oldPickup  =.TRUE.,
(PID.TID 0000.0001) ># useImportMxlD  =.FALSE.,
(PID.TID 0000.0001) ># useImportSST   =.FALSE.,
(PID.TID 0000.0001) ># useImportSSS   =.FALSE.,
(PID.TID 0000.0001) ># useImportVsq   =.FALSE.,
(PID.TID 0000.0001) ># useImportThSIce=.FALSE.,
(PID.TID 0000.0001) ># useImportFlxCO2=.FALSE.,
(PID.TID 0000.0001) >  cpl_atmSendFrq = 3600.,
(PID.TID 0000.0001) > /
(PID.TID 0000.0001) 
(PID.TID 0000.0001)  CPL_READPARMS: finished reading data.cpl
(PID.TID 0000.0001) 
(PID.TID 0000.0001) // ===================================
(PID.TID 0000.0001) // Coupling set-up summary :
(PID.TID 0000.0001) // ===================================
(PID.TID 0000.0001) // -------
(PID.TID 0000.0001) // Coupler-exchange switch (received from coupler):
(PID.TID 0000.0001) atm_cplSequential = /* use Sequential Coupling Exchange on/off flag */
(PID.TID 0000.0001)                   F
(PID.TID 0000.0001)     ;
(PID.TID 0000.0001) atm_cplExch_RunOff = /* exchange RunOff fields with coupler on/off */
(PID.TID 0000.0001)                   T
(PID.TID 0000.0001)     ;
(PID.TID 0000.0001) atm_cplExch1W_sIce = /* 1-way exchange of seaice vars with coupler */
(PID.TID 0000.0001)                   T
(PID.TID 0000.0001)     ;
(PID.TID 0000.0001) atm_cplExch2W_sIce = /* 2-way exchange of ThSIce vars with coupler */
(PID.TID 0000.0001)                   F
(PID.TID 0000.0001)     ;
(PID.TID 0000.0001) atm_cplExch_SaltPl = /* exchange Salt-Plume fields with coupler */
(PID.TID 0000.0001)                   F
(PID.TID 0000.0001)     ;
(PID.TID 0000.0001) atm_cplExch_DIC    = /* exchange DIC    fields with coupler on/off */
(PID.TID 0000.0001)                   F
(PID.TID 0000.0001)     ;
(PID.TID 0000.0001) // -------
(PID.TID 0000.0001) // Coupler parameters (from local param file):
(PID.TID 0000.0001) cpl_oldPickup = /* restart from old pickup on/off flag */
(PID.TID 0000.0001)                   F
(PID.TID 0000.0001)     ;
(PID.TID 0000.0001) useImportMxlD = /* use Imported MxL. Depth from Coupler flag */
(PID.TID 0000.0001)                   T
(PID.TID 0000.0001)     ;
(PID.TID 0000.0001) useImportSST  = /* use Imported SST from Coupler on/off flag */
(PID.TID 0000.0001)                   T
(PID.TID 0000.0001)     ;
(PID.TID 0000.0001) useImportSSS  = /* use Imported SSS from Coupler on/off flag */
(PID.TID 0000.0001)                   T
(PID.TID 0000.0001)     ;
(PID.TID 0000.0001) useImportVsq  = /* use Imported surf.Vel^2 from Coupler flag */
(PID.TID 0000.0001)                   T
(PID.TID 0000.0001)     ;
(PID.TID 0000.0001) useImportThSIce= /* use Imported thSIce state-var fr Cpl. flag */
(PID.TID 0000.0001)                   F
(PID.TID 0000.0001)     ;
(PID.TID 0000.0001) useImportFlxCO2= /* use Imported air-sea CO2 flux fr Cpl.  flag */
(PID.TID 0000.0001)                   F
(PID.TID 0000.0001)     ;
(PID.TID 0000.0001) cpl_atmSendFrq = /* Frequency^o-1 for sending data to Coupler (s) */
(PID.TID 0000.0001)                 3.600000000000000E+03
(PID.TID 0000.0001)     ;
(PID.TID 0000.0001) cplSendFrq_iter = /* send data to coupler every "cplSendFrq" iter */
(PID.TID 0000.0001)                       8
(PID.TID 0000.0001)     ;
(PID.TID 0000.0001) maxNumberPrint = /* max number of printed Exp/Imp messages */
(PID.TID 0000.0001)                     100
(PID.TID 0000.0001)     ;
(PID.TID 0000.0001) // ===================================
(PID.TID 0000.0001) // End of Coupling set-up summary
(PID.TID 0000.0001) // ===================================
(PID.TID 0000.0001) SET_PARMS: done
(PID.TID 0000.0001) Enter INI_VERTICAL_GRID: setInterFDr=    T ; setCenterDr=    F
(PID.TID 0000.0001) tile:   1 ; Read from file grid_cs32.face001.bin
(PID.TID 0000.0001)   => xC yC dxF dyF rA xG yG dxV dyU rAz dxC dyC rAw rAs dxG dyG AngleCS AngleSN
(PID.TID 0000.0001) tile:   2 ; Read from file grid_cs32.face002.bin
(PID.TID 0000.0001)   => xC yC dxF dyF rA xG yG dxV dyU rAz dxC dyC rAw rAs dxG dyG AngleCS AngleSN
(PID.TID 0000.0001) tile:   3 ; Read from file grid_cs32.face003.bin
(PID.TID 0000.0001)   => xC yC dxF dyF rA xG yG dxV dyU rAz dxC dyC rAw rAs dxG dyG AngleCS AngleSN
(PID.TID 0000.0001) tile:   4 ; Read from file grid_cs32.face004.bin
(PID.TID 0000.0001)   => xC yC dxF dyF rA xG yG dxV dyU rAz dxC dyC rAw rAs dxG dyG AngleCS AngleSN
(PID.TID 0000.0001) tile:   5 ; Read from file grid_cs32.face005.bin
(PID.TID 0000.0001)   => xC yC dxF dyF rA xG yG dxV dyU rAz dxC dyC rAw rAs dxG dyG AngleCS AngleSN
(PID.TID 0000.0001) tile:   6 ; Read from file grid_cs32.face006.bin
(PID.TID 0000.0001)   => xC yC dxF dyF rA xG yG dxV dyU rAz dxC dyC rAw rAs dxG dyG AngleCS AngleSN
(PID.TID 0000.0001) %MON XC_max                       =   1.7854351589505E+02
(PID.TID 0000.0001) %MON XC_min                       =  -1.7854351589505E+02
(PID.TID 0000.0001) %MON XC_mean                      =  -4.6999441375798E-15
(PID.TID 0000.0001) %MON XC_sd                        =   1.0355545336287E+02
(PID.TID 0000.0001) %MON XG_max                       =   1.8000000000000E+02
(PID.TID 0000.0001) %MON XG_min                       =  -1.7708797161002E+02
(PID.TID 0000.0001) %MON XG_mean                      =   1.8603515625000E+00
(PID.TID 0000.0001) %MON XG_sd                        =   1.0357130300504E+02
(PID.TID 0000.0001) %MON DXC_max                      =   3.2375185836900E+05
(PID.TID 0000.0001) %MON DXC_min                      =   1.1142031410131E+05
(PID.TID 0000.0001) %MON DXC_mean                     =   2.8605689051214E+05
(PID.TID 0000.0001) %MON DXC_sd                       =   3.4042087138252E+04
(PID.TID 0000.0001) %MON DXF_max                      =   3.2369947500827E+05
(PID.TID 0000.0001) %MON DXF_min                      =   1.2020820513318E+05
(PID.TID 0000.0001) %MON DXF_mean                     =   2.8605437324820E+05
(PID.TID 0000.0001) %MON DXF_sd                       =   3.4050524252539E+04
(PID.TID 0000.0001) %MON DXG_max                      =   3.2375195872773E+05
(PID.TID 0000.0001) %MON DXG_min                      =   1.0098378008791E+05
(PID.TID 0000.0001) %MON DXG_mean                     =   2.8603818508931E+05
(PID.TID 0000.0001) %MON DXG_sd                       =   3.4140406908005E+04
(PID.TID 0000.0001) %MON DXV_max                      =   3.2380418162750E+05
(PID.TID 0000.0001) %MON DXV_min                      =   8.0152299824136E+04
(PID.TID 0000.0001) %MON DXV_mean                     =   2.8603970633619E+05
(PID.TID 0000.0001) %MON DXV_sd                       =   3.4145142117723E+04
(PID.TID 0000.0001) %MON YC_max                       =   8.7940663871962E+01
(PID.TID 0000.0001) %MON YC_min                       =  -8.7940663871962E+01
(PID.TID 0000.0001) %MON YC_mean                      =   0.0000000000000E+00
(PID.TID 0000.0001) %MON YC_sd                        =   3.8676242969072E+01
(PID.TID 0000.0001) %MON YG_max                       =   9.0000000000000E+01
(PID.TID 0000.0001) %MON YG_min                       =  -9.0000000000000E+01
(PID.TID 0000.0001) %MON YG_mean                      =  -1.1842378929335E-15
(PID.TID 0000.0001) %MON YG_sd                        =   3.8676895860710E+01
(PID.TID 0000.0001) %MON DYC_max                      =   3.2375185836900E+05
(PID.TID 0000.0001) %MON DYC_min                      =   1.1142031410131E+05
(PID.TID 0000.0001) %MON DYC_mean                     =   2.8605689051214E+05
(PID.TID 0000.0001) %MON DYC_sd                       =   3.4042087138252E+04
(PID.TID 0000.0001) %MON DYF_max                      =   3.2369947500827E+05
(PID.TID 0000.0001) %MON DYF_min                      =   1.2020820513318E+05
(PID.TID 0000.0001) %MON DYF_mean                     =   2.8605437324820E+05
(PID.TID 0000.0001) %MON DYF_sd                       =   3.4050524252539E+04
(PID.TID 0000.0001) %MON DYG_max                      =   3.2375195872773E+05
(PID.TID 0000.0001) %MON DYG_min                      =   1.0098378008791E+05
(PID.TID 0000.0001) %MON DYG_mean                     =   2.8603818508931E+05
(PID.TID 0000.0001) %MON DYG_sd                       =   3.4140406908005E+04
(PID.TID 0000.0001) %MON DYU_max                      =   3.2380418162750E+05
(PID.TID 0000.0001) %MON DYU_min                      =   8.0152299824136E+04
(PID.TID 0000.0001) %MON DYU_mean                     =   2.8603970633619E+05
(PID.TID 0000.0001) %MON DYU_sd                       =   3.4145142117723E+04
(PID.TID 0000.0001) %MON RA_max                       =   1.0479260248419E+11
(PID.TID 0000.0001) %MON RA_min                       =   1.4019007022556E+10
(PID.TID 0000.0001) %MON RA_mean                      =   8.2992246709265E+10
(PID.TID 0000.0001) %MON RA_sd                        =   1.7509089299457E+10
(PID.TID 0000.0001) %MON RAW_max                      =   1.0480965274559E+11
(PID.TID 0000.0001) %MON RAW_min                      =   1.2166903467143E+10
(PID.TID 0000.0001) %MON RAW_mean                     =   8.2992246709235E+10
(PID.TID 0000.0001) %MON RAW_sd                       =   1.7481917919656E+10
(PID.TID 0000.0001) %MON RAS_max                      =   1.0480965274559E+11
(PID.TID 0000.0001) %MON RAS_min                      =   1.2166903467143E+10
(PID.TID 0000.0001) %MON RAS_mean                     =   8.2992246709235E+10
(PID.TID 0000.0001) %MON RAS_sd                       =   1.7481917919656E+10
(PID.TID 0000.0001) %MON RAZ_max                      =   1.0484349334619E+11
(PID.TID 0000.0001) %MON RAZ_min                      =   8.8317900612505E+09
(PID.TID 0000.0001) %MON RAZ_mean                     =   8.2992246709235E+10
(PID.TID 0000.0001) %MON RAZ_sd                       =   1.7482297311044E+10
(PID.TID 0000.0001) %MON AngleCS_max                  =   9.9999994756719E-01
(PID.TID 0000.0001) %MON AngleCS_min                  =  -9.9968286884824E-01
(PID.TID 0000.0001) %MON AngleCS_mean                 =   3.3078922539000E-01
(PID.TID 0000.0001) %MON AngleCS_sd                   =   6.2496278958502E-01
(PID.TID 0000.0001) %MON AngleSN_max                  =   9.9968286884824E-01
(PID.TID 0000.0001) %MON AngleSN_min                  =  -9.9999994756719E-01
(PID.TID 0000.0001) %MON AngleSN_mean                 =  -3.3078922539000E-01
(PID.TID 0000.0001) %MON AngleSN_sd                   =   6.2496278958502E-01
(PID.TID 0000.0001) 
(PID.TID 0000.0001) SET_REF_STATE: PhiRef/g [m] at level Center (integer)
(PID.TID 0000.0001)                      and at level Interface (half-int.) :
(PID.TID 0000.0001)  K=  0.5  ;  r=       100000.0  ;  phiRef/g=        0.000
(PID.TID 0000.0001)  K=  1.0  ;  r=        95000.0  ;  phiRef/g=      431.199
(PID.TID 0000.0001)  K=  1.5  ;  r=        90000.0  ;  phiRef/g=     1256.487
(PID.TID 0000.0001)  K=  2.0  ;  r=        77500.0  ;  phiRef/g=     2081.775
(PID.TID 0000.0001)  K=  2.5  ;  r=        65000.0  ;  phiRef/g=     3703.426
(PID.TID 0000.0001)  K=  3.0  ;  r=        50000.0  ;  phiRef/g=     5325.077
(PID.TID 0000.0001)  K=  3.5  ;  r=        35000.0  ;  phiRef/g=     7509.251
(PID.TID 0000.0001)  K=  4.0  ;  r=        25000.0  ;  phiRef/g=     9693.426
(PID.TID 0000.0001)  K=  4.5  ;  r=        15000.0  ;  phiRef/g=    12596.158
(PID.TID 0000.0001)  K=  5.0  ;  r=         7500.0  ;  phiRef/g=    15498.890
(PID.TID 0000.0001)  K=  5.5  ;  r=            0.0  ;  phiRef/g=    29638.981
(PID.TID 0000.0001)  MDS_READ_FIELD: opening global file: topo.cpl_FM.bin
(PID.TID 0000.0001) // =======================================================
(PID.TID 0000.0001) // Field Model R_low (ini_masks_etc)
(PID.TID 0000.0001) // CMIN =          1.000000000000000E+32
(PID.TID 0000.0001) // CMAX =         -1.000000000000000E+32
(PID.TID 0000.0001) // CINT =          0.000000000000000E+00
(PID.TID 0000.0001) // SYMBOLS (CMIN->CMAX): -abcdefghijklmnopqrstuvwxyz+
(PID.TID 0000.0001) //                  0.0: .
(PID.TID 0000.0001) // RANGE I (Lo:Hi:Step):(    -1:   194:     1)
(PID.TID 0000.0001) // RANGE J (Lo:Hi:Step):(    34:    -1:    -1)
(PID.TID 0000.0001) // RANGE K (Lo:Hi:Step):(   1:   1:   1)
(PID.TID 0000.0001) // =======================================================
(PID.TID 0000.0001) // =======================================================
(PID.TID 0000.0001) // END OF FIELD                                          =
(PID.TID 0000.0001) // =======================================================
(PID.TID 0000.0001) 
(PID.TID 0000.0001) // =======================================================
(PID.TID 0000.0001) // Field Model Ro_surf (ini_masks_etc)
(PID.TID 0000.0001) // CMIN =          4.905667583685931E+04
(PID.TID 0000.0001) // CMAX =          1.000000000000000E+05
(PID.TID 0000.0001) // CINT =          1.886789783820026E+03
(PID.TID 0000.0001) // SYMBOLS (CMIN->CMAX): -abcdefghijklmnopqrstuvwxyz+
(PID.TID 0000.0001) //                  0.0: .
(PID.TID 0000.0001) // RANGE I (Lo:Hi:Step):(    -1:   194:     1)
(PID.TID 0000.0001) // RANGE J (Lo:Hi:Step):(    34:    -1:    -1)
(PID.TID 0000.0001) // RANGE K (Lo:Hi:Step):(   1:   1:   1)
(PID.TID 0000.0001) // =======================================================
(PID.TID 0000.0001) K =   1
(PID.TID 0000.0001) //                I=8       I=18      I=28      I=34      I=44      I=54      I=64      I=70      I=80      I=90      I=96      I=106     I=116     I=126     I=132     I=142     I=152     I=162     I=168     I=178     I=188
(PID.TID 0000.0001) // |--J--|101234567|901234567|901234567|901234123|567890123|567890123|567890123|563456789|123456789|123456789|123456785|789012345|789012345|789012345|789078901|345678901|345678901|345678901|901234567|901234567|901234567|901234
(PID.TID 0000.0001) //     34 ++++++++++++++++++zxwwwwwy++++nmnounnounny+zzzzzxxwwrnmmmqsuvvxxw+++++++++++++++++++++xxyzyxwtmlnnoy+++++++++++++++++++++++++++++++++++++++++++++++++++++++++++++++yxxwwxy++++++++++++++++++++++++++++++++++++++++++++++
(PID.TID 0000.0001) //     33 ++++++++++++++++++wttvwww++ywqstuuuouuuooy+yyzzyxwwqoomlmqtvutwyy++++++++++++++++++++xxxyyyxwunmnopx+++++++++++++++++++++++++++++++++++++++++++++++++++++++++++++++zyxwwwwy+++++++++++++++++++++++++++++++++++++++++++++
(PID.TID 0000.0001) //     32 ++++++++++++++++++wy+y+ww+xsrtwxyxvoyxvonrywwzywommlmpppqtttsuy++yy++yyy++++++++++++yxxyyxxxxvqmnpqw+++++++++++++++++++++++++++++++++++++++++++++++++++++++++++++++zyxwwwww+++++++++++++++++++++++++++++++++++++++++++++
(PID.TID 0000.0001) //     31 ++++++++++++++++wv++++++y+yxywxxyywqyywqnotsswwphglqttrnnqssswz++++++++++++++++++++zxxxyyxxyxwuport++++++++++++++++++++++++++++++++++++++++++++++++++++++++++++++++zyyxwwwww++++++++++++++++++++++++++++++++++++++++++++
(PID.TID 0000.0001) //     30 ++++++++++++++++w+++++++++++++wwxzyuxzyumnstsspmfdhmlhgfekosuxz+++++++++++++++++++++xxxyzyyyxwwsptx+++++++++++++++++++++++++++++++++++++++++++++++++++++++++++++zzzzyyxxwxxwwy++++++++++++++++++++++++++++++++++++++++++
(PID.TID 0000.0001) //     29 ++++++++++++++++++wwx+++++++++wwxyzxxyzxrnosspllkeabbaabdhmsvyzz++++++++++++++++++zxwwx++zyyxxwtps++++++++++++++++++++++++++++++++++++++++++++++++++++++++++++++yyzzyxxxxxxxxxz+++++++++++++++++++++++++++++++++++++++++
(PID.TID 0000.0001) //     28 +++++++++++++++xsvwxxxy+zzzzywwwwxyzwxyzypnorqnrwnc--aaabelsvxyx++++++++++++++++++zxxxx+++zyxxwvpr++++++++++++++++++++++++++++++++++++++++++++++++++++++++++++++yyzzyyxxyyyyyyzz++++++++++++++++++++++++++++++++++++++++
(PID.TID 0000.0001) //     27 +++++++++++++++vvwxxxxxxzzzyxwwvvwxyvwxyz+++trrwzwkdabccbenvwxxw++++++++++++++++++++xxyz++zyxxxwst+++++++++++++++++++++++++++++++++++++++++++++++++++++++++++++ywyz+zyxxyzz++zzz++++++++++++++++++++++++++++++++++++++++
(PID.TID 0000.0001) //     26 ++++++++++++++yxxyxwwwwxyyxxyxyyvwwxvwwxz++++yyyyyxvnmmmhhnuwxxy++++++++++++++++++++++++++zyxxxwss++++++++++++++++++++++++++++++++++++++++++++++++++++++++++++ywwx++zyyyxxxz++++z+++z+++++++++++++++++++++++++++++++++++
(PID.TID 0000.0001) //     25 +++++++++++++yyyyyxvuvwwwxwxyxy+vvwxvvwxzzx++++zxxxyxywwqorwxyy+++++++++++++++++++++++x++yyyxxxwss++++++++++++++++++++++++++++++++++++++++++++++++++++++++++++ywvwz+zzzwmkmrwyyzz+++z+++++++++++++++++++++++++++++++++++
(PID.TID 0000.0001) //     24 +++++++++++++yyyyyxwwwwstwwxyxy+wswxwswxyzz+++++xxxxy++xutvx++++++++++++++++++++++++++xx+yyzyxxvst++++++++++++++++++++++++++++++++++++++++++++++++++++++++++++ywxz++zzukgfghkqvxzz++zz++++++++++++++++++++++++++++++++++
(PID.TID 0000.0001) //     23 +++++++++++++zyyyyxxwwxxwwwxxxw++pvw+pvwxz++++++yxxy+++ywwwx+++++++++++++++++++++++oq+++xxzzyyxvsr++++++++++++++++++++++++++++++++++++++++++++++z+++++++++++++trwy+++wher+yumhkrwxy+wxy+++++++++++++++ww++++++++++++++++
(PID.TID 0000.0001) //     22 +++++++++++++zyyyyxyxxyyxwwwxxvr++wy++wy++++++++yxy+++++yxxw+++++++++++++++++++++++vlr+++x++zzywusw+++++++++++++++++++++++++++++++++++++++++++++xy++++++++++++wpqvy+xrht++++++xuuvwwuvww+++++++++++++lhhknw+++++++++++++
(PID.TID 0000.0001) //     21 +++++++++++++yxxyyyyxxyyxwwwxxrnv+++v++++++++++++yy++++++zyxy++++++++++++++++++++++vkkn++++++++xuutw++++++++++++++++++++++++++++++++++++++++++++xxx++++++++++++ywqsuop++++++++++++wu++wuwy++++++++++pkhghkklw+++++++++++
(PID.TID 0000.0001) //     20 +++++++++++++yxxyyyxxwxxxwwxxxpmqvwxqvwx+++++++++y++++++++++++++++++++++++++++++++++khknwt++++++wwwx++++++++++++++++++++++++++++++++++++++++++++xxxxxz++++++++++++wuw+++++++++++++++++++++++++x+++++okhhhhklr+++++++++++
(PID.TID 0000.0001) //     19 ++++++++++++++yyyyyyxwwwxwwxxwrnqwxyqwxy+++++++++++++++++y+++++++++++++++++++++++x++qlkmxx++++++xyy+++++++++++++++++++++++++++++++++++++++++++++yyxxwxz+++++++y++++++++++++++++++++++++++++++++ws++xqkhgghlow+++++++++++
(PID.TID 0000.0001) //     18 +++++++++++++++++++++wwxxxxwwwutwxz+wxz+++++++++++++++++yy++++yy++++++++w++++z++++++++rs++++++++++++++++++++++++++++++++++++++++++++++++++++++++yyyyxxz++++++y++++++++++++++++++++++++++++++++++xv+xqlhgfghkr+++++++++++
(PID.TID 0000.0001) //     17 +++++++++++++++++++++yxxyyxwturuy+++y++++++++++++++++++++yy++ywy++++++++v+++zy++++++++++++++++++++y+++++++++++++++++++++++++++++++++++++++++++++xxyzzyz++++zw+++++++++++++++++++++++++++++++++++xuwupkhgffghkq++++++++++
(PID.TID 0000.0001) //     16 +++++++++++++++++++++zxxxxxvrtqtz+++z+++++++++++++++++++++y++yy++++++z+++wwzz++++++++++++++++++++xxy++++++++++++++++++++++++++++++++++++++++++++xxyyyzz++++yw+++++++++++++++++++++++++++++++++++xsonnkhhggghho++++++++++
(PID.TID 0000.0001) //     15 zzzy++++++++++++++++++yxxxxvsusv+++++++++++++++++++++++++++z++++++++++yw+ytxy++xw++++++++++++++++wwx++++++++++++++++++++++++++++++++++++++++y+++yxxxxyz++++y+++++++++++++++++++++++++++++++++++++uoqsvkkhhhhkp++++++++++
(PID.TID 0000.0001) //     14 yyyxxy++++++++++++++++ywwwwvtttw++++++++++++++++++++++++++++++++++++++++++twxzzxwwwx++++++++++++zxwx+++++++++++++++++++++++++++++++++++++++++yy+xxwwxxxyz++v+++++++++++++++++++++++++++++++++++++woux+xmkhhklv++++++++++
(PID.TID 0000.0001) //     13 yxxxx++++++++++++++++++vvvvutsux+++++++++++++++++++++++++++++++++++++++++yvwxz++zzyy+++++++++++zyxwxx+++++++++++++++++++++++++++++++++++++++++++wvuttvwwvqot++++++++++++++++++++++++++++++++++++++vwy++plkkko+++++++++++
(PID.TID 0000.0001) //     12 xwwwy+++++++++++++++++xsuvuuuuwx++++++++++++++++++++++++++++++++++++++++++wwxzzzzzyy+++++++z+++xwwv++x++++++++++++++++++++++++++++++++++++++++++uqnmlossqoq++++++++++++++++++++++++++++++++++++++++++++qlkklw+++++++++++
(PID.TID 0000.0001) //     11 wwww++++++++++++++++++wtvvvvvvwy+++y+++y++++++++++++++++++++++++++zzzz+++wwwxyzzzzzz+++++zzyzywvtrv+++++++++++++++++++++++++++++++++++++++++++++pmmllnqpqw+++++++++++++++++++++++++++++++++++++++++++++qmmmq++++++++++++
(PID.TID 0000.0001) //     10 wwwx++++++++++++++++++xuvwwvuwy+++xw++xw+++++++++++++++++++++++++zyyyyzzywwwxyzzzzzzzzy++zxxxywvtsx+++++++++++++++++++++++++++++++++++++++++++++onnnoquw++++++++++++++++++++++++++++++++++++++++++++++++ww++++++++++++++
(PID.TID 0000.0001) //      9 wwwy+++++++++++++++++++tuvwvvw++++w+++w+++++++++++++++++++++++++zzyxyyyy+++yzzzzzzzzyxxzzywwxxyxxwx+++++++++++++++++++++++++++++++++++++++++++++rponrwy+++++++++++++++++++++++++++++++++++++++++++++++++++++++++++++++++
(PID.TID 0000.0001) //      8 wwy++++++++++++++++++++tuvvvwy++++x+++x+++++++++++++++++++++++yxxyxxxxyyyx+++zzzzzzyxyz+zzwwxxyxxwwxy+++++++++++++++++++++++++++++++++++++++++++tqposx++++++++++++++++++++++++++++++++++++++++++++++++++++++++++++++++++
(PID.TID 0000.0001) //      7 w++++++++++++++++++++++wvvusuz++++y+++y+++++++++++++++++++++++yxxxxxxxyzxsy++zzzzzzyyzzzzzxxxxwwwvvvxx+++++++++++++++++++++++++++++++++yxxxyy++++wxyy+++++++++++++++++++++++++++++++++++++++++++++++++++++++++++++++++++
(PID.TID 0000.0001) //      6 +++++++++++++++++++++++ywusqw+++++++++++++++++++++++++++++++++yxxxxxxxz+yrw++wzzzzyxyzzzzzxxxwuuwwxwxx++++++++++++++++++++++++++++++++zyyyyxxy++++++++++++++++++++++++++++++++++++++++++++++++++++++++++++++++++++++++++
(PID.TID 0000.0001) //      5 ++++++++++++++++++++++++vtrv++++++++++++++++++++++++++++++++++yxxyyyyyzzwtq++py++zyxzzzzzyxxxwsuwwxxxx+++++++++++++++++++++++++++++++yyxyzzzyy++++++++++++++++++++++++++++++++++++++++++++++++++++++++++++++++++++++++++
(PID.TID 0000.0001) //      4 ++++++++++++++++++++++++yyy+++++++++++++++++++++++++++++++++++yyyzzzzzzyxwsnnny++zyyyyzzywvtuvtvwwxxwx+++y+++y++++++++++++++++++w+++xxyyzzzzzz++++++++++++++++++++++++++++++++++++++++++++++++++++++++++++++++++++++++++
(PID.TID 0000.0001) //      3 +++++++++++++++++++++++++++++++++++++++++++++++++++++++++++++++++++++zzyxxtmnvz+zzzyxxxxwqpnotsuvwyxwy++++y+++y++++++++++++++++wv+++zyzzzzzyz+++++++++++++++++++++++++++++++++++++++++++++++++++++++++++++++++++++++++++
(PID.TID 0000.0001) //      2 ++++++++++++++++++++++++++++++++++++++++++++++++++++++++++++++++++++++zyyyunny+zzzzzxxwwrnmmmqsuvvxxw+++++y+++y++++++++++++++++w++++zyyz+zyyy+++++++++++++++++++++++++++++++++++++++++++++++++++++++++++++++++++++++++++
(PID.TID 0000.0001) //      1 ++++++++++++++++++++++++++++++++++++++++++++++++++++++++++++++++++++++++yxuooy+yyzzyxwwqoomlmqtvutwyy+++++y+++y++++++++++++++++y++++zyyyzzzzz+++++++++++++++++++++++++++++++++++++++++++++++++++++++++++y+++++++++++++++
(PID.TID 0000.0001) //      0 ++++++++++++++++++++++++++++++++++++++++++++++++++++++++++++++++++++++++wvvonrywwzywommlmpppqtttsuy++yy++yy++yy+++++++++++++++z++++zyyxxxyzz++++++++++++++++++++++++++++++++++++++++++++++++++++++++++++y+++++++yyz++++z
(PID.TID 0000.0001) //     -1 ++++++++++++++++++++++++++++++++++++++++++++++++++++++++++++++++++++++++qowqnotsswwphglqttrnnqssswz++++++++++++++++++++++++++++++++zyyxxxyz++++++++++++++++++++++++++++++++++++++++++++++++++++++++++++y+++++++yxyzzyz+y
(PID.TID 0000.0001) // =======================================================
(PID.TID 0000.0001) // END OF FIELD                                          =
(PID.TID 0000.0001) // =======================================================
(PID.TID 0000.0001) 
(PID.TID 0000.0001) // =======================================================
(PID.TID 0000.0001) // Field hFacC at iteration          0
(PID.TID 0000.0001) // CMIN =          2.000000000000000E-01
(PID.TID 0000.0001) // CMAX =          1.000000000000000E+00
(PID.TID 0000.0001) // CINT =          2.962962962962963E-02
(PID.TID 0000.0001) // SYMBOLS (CMIN->CMAX): -abcdefghijklmnopqrstuvwxyz+
(PID.TID 0000.0001) //                  0.0: .
(PID.TID 0000.0001) // RANGE I (Lo:Hi:Step):(    -1:   194:     1)
(PID.TID 0000.0001) // RANGE J (Lo:Hi:Step):(    34:    -1:    -1)
(PID.TID 0000.0001) // RANGE K (Lo:Hi:Step):(   1:   1:   1)
(PID.TID 0000.0001) // =======================================================
(PID.TID 0000.0001) K =   1
(PID.TID 0000.0001) //                I=8       I=18      I=28      I=34      I=44      I=54      I=64      I=70      I=80      I=90      I=96      I=106     I=116     I=126     I=132     I=142     I=152     I=162     I=168     I=178     I=188
(PID.TID 0000.0001) // |--J--|101234567|901234567|901234567|901234123|567890123|567890123|567890123|563456789|123456789|123456789|123456785|789012345|789012345|789012345|789078901|345678901|345678901|345678901|901234567|901234567|901234567|901234
(PID.TID 0000.0001) //     34 ++++++++++++++++++qe--bbap++++...........k+vtutskgc-..........hj-+++++++++++++++++++++hiorojd......k+++++++++++++++++++++++++++++++++++++++++++++++++++++++++++++++mgecdel++++++++++++++++++++++++++++++++++++++++++++++
(PID.TID 0000.0001) //     33 ++++++++++++++++++b...bac++k-............k+pqvspec-...........elk++++++++++++++++++++ihknomid......e+++++++++++++++++++++++++++++++++++++++++++++++++++++++++++++++tnhdc--l+++++++++++++++++++++++++++++++++++++++++++++
(PID.TID 0000.0001) //     32 ++++++++++++++++++ak+k+c-+e...bilg..lg....kaaro-..............k++kl++kkk++++++++++++mgillkije......d++++++++++++++++++++++++++++++++++++++++++++++++++++++++++++++ysnheba--+++++++++++++++++++++++++++++++++++++++++++++
(PID.TID 0000.0001) //     31 ++++++++++++++++-.++++++k+kfkdeipp-.pp-......db..............ar++++++++++++++++++++vkfilljikga.....+++++++++++++++++++++++++++++++++++++++++++++++++++++++++++++++yspmhbadcc++++++++++++++++++++++++++++++++++++++++++++
(PID.TID 0000.0001) //     30 ++++++++++++++++c+++++++++++++-citk.itk......................ju+++++++++++++++++++++hfipsnkmhc-...k+++++++++++++++++++++++++++++++++++++++++++++++++++++++++++++wuvrmlkgdhha-l++++++++++++++++++++++++++++++++++++++++++
(PID.TID 0000.0001) //     29 ++++++++++++++++++baf+++++++++-bfmvkfmvk.....................ouw++++++++++++++++++rkddi++tpoifa...++++++++++++++++++++++++++++++++++++++++++++++++++++++++++++++qoutnjjgfijgfhr+++++++++++++++++++++++++++++++++++++++++
(PID.TID 0000.0001) //     28 +++++++++++++++e..-fhjm+uuvtl---bfnwbfnwl.......-............kki++++++++++++++++++rjeej+++uoigc...++++++++++++++++++++++++++++++++++++++++++++++++++++++++++++++lovwolkjnpooqqrv++++++++++++++++++++++++++++++++++++++++
(PID.TID 0000.0001) //     27 +++++++++++++++..egiifekstspjd-..beo.beot+++...bta..........bjhd++++++++++++++++++++kint++xpige-..+++++++++++++++++++++++++++++++++++++++++++++++++++++++++++++ldmwytniiouwxxxvw++++++++++++++++++++++++++++++++++++++++
(PID.TID 0000.0001) //     26 ++++++++++++++kfimidbcdgkmiknill.-bj.-bjw++++llpmpe.........bfgl++++++++++++++++++++++++++vpjiga..++++++++++++++++++++++++++++++++++++++++++++++++++++++++++++m--iyzvnmnffiszxxxv+++v+++++++++++++++++++++++++++++++++++
(PID.TID 0000.0001) //     25 +++++++++++++qmmonf...b-agcgnil+..bj..bjutg++++vhhknhkc-...-ill+++++++++++++++++++++++j++qopkih-..++++++++++++++++++++++++++++++++++++++++++++++++++++++++++++l-.euzwtr-....dlpus+++s+++++++++++++++++++++++++++++++++++
(PID.TID 0000.0001) //     24 ++++++++++++xplmnng--a-..achmil+-.-i-.-inus+++++ighho++e...h++++++++++++++++++++++++++jh+pqslih...++++++++++++++++++++++++++++++++++++++++++++++++++++++++++++lbkrxxxu.........isw++sw++++++++++++++++++++++++++++++++++
(PID.TID 0000.0001) //     23 ++++++++++++ysnmmlhf-bifdcbgijc++..c+..cht++++++lgil+++ob-bg+++++++++++++++++++++++..+++jjrwpli...++++++++++++++++++++++++++++++++++++++++++++++v+++++++++++++..-qyyxc...+l.....afm+afm+++++++++++++++-c++++++++++++++++
(PID.TID 0000.0001) //     22 ++++++++++++ysonmmjkfhmnia-cfi..++al++al++++++++ofk+++++nigc+++++++++++++++++++++++...+++h++rrna..a+++++++++++++++++++++++++++++++++++++++++++++km++++++++++++e...nxi...++++++e...-d..-d+++++++++++++.....-+++++++++++++
(PID.TID 0000.0001) //     21 ++++++++++++yojkmnmlhjmmha-cfe...+++.++++++++++++ll++++++spjl++++++++++++++++++++++....++++++++j...a++++++++++++++++++++++++++++++++++++++++++++fgi++++++++++++l-.....++++++++++++e.++e.-l++++++++++........-+++++++++++
(PID.TID 0000.0001) //     20 +++++++++++++lfhlnljecfiidbgie....af..af+++++++++l+++++++++y++++++++++++++++++++++++....-.++++++-cej++++++++++++++++++++++++++++++++++++++++++++iihhjr++++++++++++-.c+++++++++++++++++++++++++j+++++.........+++++++++++
(PID.TID 0000.0001) //     19 ++++++++++++++lkoqpqi--bfdcegd...-fm.-fm+++++++++++++++++q+++++++++++++++++++++++j++....jj++++++kmp+++++++++++++++++++++++++++++++++++++++++++++llkidfsz++++++l++++++++++++++++++++++++++++++++b.++j........a+++++++++++
(PID.TID 0000.0001) //     18 +++++++++++++++++++++bbehgeb--..-kr+-kr+++++++++++++++++ll++++ll++++++++-++++t++++++++..++++++++++++++++++++++++++++++++++++++++++++++++++++++++llnoihr++++++l++++++++++++++++++++++++++++++++++j.+j.........+++++++++++
(PID.TID 0000.0001) //     17 +++++++++++++++++++++lghlkh-....lx++lx+++++++++++++++++++lp++lal++++++++.+++ro++++++++++++++++++++o+++++++++++++++++++++++++++++++++++++++++++++jkorrqv++++tc+++++++++++++++++++++++++++++++++++j.a...........++++++++++
(PID.TID 0000.0001) //     16 yy+++++++++++++++++++rhhkkg.....r+++r+++++++++++++++++++++l++pl++++++r+++abqw++++++++++++++++++++fim++++++++++++++++++++++++++++++++++++++++++++iimoorwz+++n-+++++++++++++++++++++++++++++++++++j.............++++++++++
(PID.TID 0000.0001) //     15 sstm++++++++++++++++++lfghe.....+++++++++++++++++++++++++++s++++++++++l-+k.eq++fc++++++++++++++++dbj++++++++++++++++++++++++++++++++++++++++o+++kjijkntx+++l+++++++++++++++++++++++++++++++++++++.............++++++++++
(PID.TID 0000.0001) //     14 pnnghl++++++++++++++++l--aa....a++++++++++++++++++++++++++++++++++++++++++.-kxwjccbj++++++++++++ufah+++++++++++++++++++++++++++++++++++++++++kl+geddegins++.+++++++++++++++++++++++++++++++++++++a..i+j.......++++++++++
(PID.TID 0000.0001) //     13 mhhei++++++++++++++++++........e+++++++++++++++++++++++++++++++++++++++++k.-guy+vsll+++++++++++uqe-jj+++++++++++++++++++++++++++++++++++++++++++a.....--....++++++++++++++++++++++++++++++++++++++.cn++......+++++++++++
(PID.TID 0000.0001) //     12 hedcn+++++++++++++++++g.......-g+++++++++++++++++++++++++++++++++++++x++++bbgsvwwuqp+++++++r+++gb-.++k++++++++++++++++++++++++++++++++++++++++++...........++++++++++++++++++++++++++++++++++++++++++++.....a+++++++++++
(PID.TID 0000.0001) //     11 bbcd++++++++++++++++++c.......al+++l+++l++++++++++++++++++++++++++sttt+++cabfqstuutu+++++wsqtna....+++++++++++++++++++++++++++++++++++++++++++++.........b+++++++++++++++++++++++++++++++++++++++++++++.....++++++++++++
(PID.TID 0000.0001) //     10 aa-e++++++++++++++++++e..--..-k+++gd++gd+++++++++++++++++++++++++vkknpswk-cafqsrrttuusqxytiijkb...j+++++++++++++++++++++++++++++++++++++++++++++.......-++++++++++++++++++++++++++++++++++++++++++++++++-a++++++++++++++
(PID.TID 0000.0001) //      9 d--l+++++++++++++++++++...-..c++++a+++a+++++++++++++++++++++++++urlkkmoq+++prtsrsuttmghtxnabejljh-j+++++++++++++++++++++++++++++++++++++++++++++.....-l+++++++++++++++++++++++++++++++++++++++++++++++++++++++++++++++++
(PID.TID 0000.0001) //      8 c-l++++++++++++++++++++.....-o++++f+++f+++++++++++++++++++++++ohilkihhmpke++yvsstutqjnsxxrddfikie--ko+++++++++++++++++++++++++++++++++++++++++++.....f++++++++++++++++++++++++++++++++++++++++++++++++++++++++++++++++++
(PID.TID 0000.0001) //      7 c++++++++++++++++++++++a.....s++++l+++l+++++++++++++++++++++++nggiigfhouf.k++rvtstsnmuxwvshghgc--...ek+++++++++++++++++++++++++++++++++piffkk++++dekk+++++++++++++++++++++++++++++++++++++++++++++++++++++++++++++++++++
(PID.TID 0000.0001) //      6 +++++++++++++++++++++++l-...a+++++++++++++++++++++++++++++++++nhhiiggjtyk.-++-swwumhowxwwtiihb..-bfafk++++++++++++++++++++++++++++++++sklnlifm++++++++++++++++++++++++++++++++++++++++++++++++++++++++++++++++++++++++++
(PID.TID 0000.0001) //      5 ++++++++++++++++++++++++....++++++++++++++++++++++++++++++++++oijlnmnqvxd..++.l+zuliquvxwqkhe-..-bjgge+++++++++++++++++++++++++++++++nmjottuqp++++++++++++++++++++++++++++++++++++++++++++++++++++++++++++++++++++++++++
(PID.TID 0000.0001) //      4 ++++++++++++++++++++++++kkk+++++++++++++++++++++++++++++++++++qmosuutttqeb....m++toooorul-......--jgck+++k+++k++++++++++++++++++-+++jglpsuuvvu++++++++++++++++++++++++++++++++++++++++++++++++++++++++++++++++++++++++++
(PID.TID 0000.0001) //      3 +++++++++++++++++++++++++++++++++++++++++++++++++++++++++++++++++++++vrnii....tyvtrqjhhh-........-kjak++++k+++k++++++++++++++++-.++xtprtvwtpr+++++++++++++++++++++++++++++++++++++++++++++++++++++++++++++++++++++++++++
(PID.TID 0000.0001) //      2 ++++++++++++++++++++++++++++++++++++++++++++++++++++++++++++++++++++++sppl...k+vtutskgc-..........hj-+++++k+++k++++++++++++++++-++++wqpuyxqnp+++++++++++++++++++++++++++++++++++++++++++++++++++++++++++++++++++++++++++
(PID.TID 0000.0001) //      1 ++++++++++++++++++++++++++++++++++++++++++++++++++++++++++++++++++++++++pg...k+pqvspec-...........elk+++++k+++k++++++++++++++++l++++somotvtrs+++++++++++++++++++++++++++++++++++++++++++++++++++++++++++l+++++++++++++++
(PID.TID 0000.0001) //      0 ++++++++++++++++++++++++++++++++++++++++++++++++++++++++++++++++++++++++-.....kaaro-..............k++kl++kk++kk+++++++++++++++r+++xtpmhhjqtv++++++++++++++++++++++++++++++++++++++++++++++++++++++++++++k+++++++mpu++++s
(PID.TID 0000.0001) //     -1 ++++++++++++++++++++++++++++++++++++++++++++++++++++++++++++++++++++++++..-......db..............ar++++++++++++++++++++++++++++++++tnkhfgnt++++++++++++++++++++++++++++++++++++++++++++++++++++++++++++o+++++++kfqvrps+p
(PID.TID 0000.0001) // =======================================================
(PID.TID 0000.0001) // END OF FIELD                                          =
(PID.TID 0000.0001) // =======================================================
(PID.TID 0000.0001) 
(PID.TID 0000.0001) // =======================================================
(PID.TID 0000.0001) // Field hFacW at iteration          0
(PID.TID 0000.0001) // CMIN =          2.000000000000000E-01
(PID.TID 0000.0001) // CMAX =          1.000000000000000E+00
(PID.TID 0000.0001) // CINT =          2.962962962962963E-02
(PID.TID 0000.0001) // SYMBOLS (CMIN->CMAX): -abcdefghijklmnopqrstuvwxyz+
(PID.TID 0000.0001) //                  0.0: .
(PID.TID 0000.0001) // RANGE I (Lo:Hi:Step):(    -1:   194:     1)
(PID.TID 0000.0001) // RANGE J (Lo:Hi:Step):(    34:    -1:    -1)
(PID.TID 0000.0001) // RANGE K (Lo:Hi:Step):(   1:   1:   1)
(PID.TID 0000.0001) // =======================================================
(PID.TID 0000.0001) K =   1
(PID.TID 0000.0001) //                I=8       I=18      I=28      I=34      I=44      I=54      I=64      I=70      I=80      I=90      I=96      I=106     I=116     I=126     I=132     I=142     I=152     I=162     I=168     I=178     I=188
(PID.TID 0000.0001) // |--J--|101234567|901234567|901234567|901234123|567890123|567890123|567890123|563456789|123456789|123456789|123456785|789012345|789012345|789012345|789078901|345678901|345678901|345678901|901234567|901234567|901234567|901234
(PID.TID 0000.0001) //     34 ++++++++++++++++++qe---baap+++............kvtttskgc-...........h--++++k.++++++++++++++hhioojd.......k++++++.+++++++++++++++++++++++++++++++++++.+++++++++++++++++++mgeccdel++++++++.+++++++++++++++++++++++++++++++++++.
(PID.TID 0000.0001) //     33 ++++++++++++++++++b....aac+k-.............kppqspec-............ekk++++k++++++++++++++ihhknmid.......e++++++++++++++++++++++++++++++++++++++++++++++++++++++++++++++tnhdc---l++++++++++++++++++++++++++++++++++++++++++++
(PID.TID 0000.0001) //     32 ++++++++++++++++++aakkkc--e....big..ig.....aaao-...............k+kkl+kkk++++++++++++mggilkiie.......d+++++++++++++++++++++++++++++++++++++++++++++++++++++++++++++ysnheba---++++++++++++++++++++++++++++++++++++++++++++
(PID.TID 0000.0001) //     31 ++++++++++++++++-..+++++kkkffddeip-.ip-.......b...............ar+++++++++++++++++++vkffiljiiga......++++++++++++++++++++++++++++++++++++++++++++++++++++++++++++++yspmhbaaccc+++++++++++++++++++++++++++++++++++++++++++
(PID.TID 0000.0001) //     30 ++++++++++++++++cc++++++++++++--cik.cik.......................ju++++++++++++++++++++hffipnkkhc-....k++++++++++++++++++++++++++++++++++++++++++++++++++++++++++++wuurmlkgddha--l+++++++++++++++++++++++++++++++++++++++++
(PID.TID 0000.0001) //     29 ++++++++++++++++++baaf++++++++--bfmkbfmk......................ouw+++++++++++++++++rkdddi+tpoifa....+++++++++++++++++++++++++++++++++++++++++++++++++++++++++++++qootnjjgffigffhr++++++++++++++++++++++++++++++++++++++++
(PID.TID 0000.0001) //     28 +++++++++++++++e...-fhjmuuutl----bfn-bfnl.....................kii+++++++++++++++++rjeeej++uoigc....+++++++++++++++++++++++++++++++++++++++++++++++++++++++++++++llovolkjjnoooqqrv+++v+++++++++++++++++++++++++++++++++++
(PID.TID 0000.0001) //     27 +++++++++++++++...egifeeksspjd-...be..beot++....ba...........bhdd+++++++++++++++++++kiint+xpige-...++++++++++++++++++++++++++++++++++++++++++++++++++++++++++++lddmwtniiiouwxxvvw+++w+++++++++++++++++++++++++++++++++++
(PID.TID 0000.0001) //     26 ++++++++++++++kffiidbbcdgkiikiil..-b..-bjw+++lllmme..........bfgl+++++++++++++++++++++++++vpjiga...+++++++++++++++++++++++++++++++++++++++++++++++++++++++++++m---iyvnmmfffisxxxvv++vv++++++++++++++++++++++++++++++++++
(PID.TID 0000.0001) //     25 +++++++++++++qmmmnf....--accgiil...b...bjtgg+++vhhhkhhc-....-ill++++++++++++++++++++++jj+qookih-...+++++++++++++++++++++++++++++++++++++++++++++++++++++++++++l-..euwtr-.....dlpss++ss++++++++++++++++++++++++++++++++++
(PID.TID 0000.0001) //     24 ++++++++++++xpllmng----...achiil-..--..-inss++++igghho+e....h+++++++++++++++++++++++++jhhppqlih....+++++++++++++++++++++++++++++++++++++++++++++++++++++++++++lbbkrxxu..........isw+isw+++++++++++++++++++++++++++++++++
(PID.TID 0000.0001) //     23 ++++++++++++ysnmmlhf--bfdcbbgicc+...+...cht+++++lggil++ob--bg++++++++++++++++++++++...++jjjrpli....+++++++++++++++++++++++++++++++++++++++++++++vv++++++++++++...-qyxc....l......afm.afm++++++++++++++--c+++++++++++++++
(PID.TID 0000.0001) //     22 ++++++++++++ysonmmjjffhmia--cf...+aa.+aal+++++++offk++++nigcc++++++++++++++++++++++....++hh+rrna...a++++++++++++++++++++++++++++++++++++++++++++hkm+++++++++++e....ni....+++++e....-...-d++++++++++++......-++++++++++++
(PID.TID 0000.0001) //     21 ++++++++++++yojjkmmlhhjmha--ce....++..+++++++++++lll+++++spjjl+++++++++++++++++++++.....+++++++j....a+++++++++++++++++++++++++++++++++++++++++++ffgi+++++++++++l-......+++++++++++e.++e..-l+++++++++.........-++++++++++
(PID.TID 0000.0001) //     20 +++++++++++++lffhlljeccfidbbge.....a...af++++++++ll++++++++yy+++++++++++++++++++++++.......+++++--cej+++++++++++++++++++++++++++++++++++++++++++iihhhjr+++++++++++-..c++++++++++++++++++++++++jj++++..........++++++++++
(PID.TID 0000.0001) //     19 ++++++++++++++lkkoppi---bdcced....-f..-fm++++++++++++++++qq++++++++++++++++++++++jj+.....jj+++++kkmp++++++++++++++++++++++++++++++++++++++++++++llkiddfsz+++++ll+++++++++++++++++++++++++++++++b..+j.........a++++++++++
(PID.TID 0000.0001) //     18 w++++++++++++++++++++bbbegeb--...-kr.-kr++++++++++++++++lll+++lll+++++++--+++tt+++++++...+++++++++++++++++++++++++++++++++++++++++++++++++++++++lllnihhr+++++ll+++++++++++++++++++++++++++++++++j..j..........++++++++++
(PID.TID 0000.0001) //     17 u++++++++++++++++++++lgghkh-.....lx+.lx++++++++++++++++++llp+laal+++++++..++roo+++++++++++++++++++oo++++++++++++++++++++++++++++++++++++++++++++jjkorqqv+++tcc++++++++++++++++++++++++++++++++++j..............+++++++++
(PID.TID 0000.0001) //     16 vyy++++++++++++++++++rhhhkg......r++.r++++++++++++++++++++ll+pll+++++rr++aabqw+++++++++++++++++++ffim+++++++++++++++++++++++++++++++++++++++++++iiimoorwz++n--++++++++++++++++++++++++++++++++++j..............+++++++++
(PID.TID 0000.0001) //     15 rssmm+++++++++++++++++lffge......+++.++++++++++++++++++++++ss+++++++++l-+k..eq+fcc+++++++++++++++dbbj+++++++++++++++++++++++++++++++++++++++oo++kjiijkntx++ll++++++++++++++++++++++++++++++++++++..............+++++++++
(PID.TID 0000.0001) //     14 mnngghl+++++++++++++++l---a.....a+++a+++++++++++++++++++++++++++++++++++++..-kwjccbbj+++++++++++ufaah++++++++++++++++++++++++++++++++++++++++kklgedddegins+..++++++++++++++++++++++++++++++++++++a...ij........+++++++++
(PID.TID 0000.0001) //     13 lhheei+++++++++++++++++.........e+++e++++++++++++++++++++++++++++++++++++k..-guyvslll++++++++++uqe--jj++++++++++++++++++++++++++++++++++++++++++a......-.....+++++++++++++++++++++++++++++++++++++..cn+.......++++++++++
(PID.TID 0000.0001) //     12 hedccn++++++++++++++++g........-g+++g++++++++++++++++++++++++++++++++xx+++bbbgsvwuqpp++++++rr++gb-..+kk+++++++++++++++++++++++++++++++++++++++++............+++++++++++++++++++++++++++++++++++++++++++......a++++++++++
(PID.TID 0000.0001) //     11 bbbcd+++++++++++++++++c........al++ll++ll+++++++++++++++++++++++++ssttt++caabfqstuttu++++wsqqna.....++++++++++++++++++++++++++++++++++++++++++++..........b++++++++++++++++++++++++++++++++++++++++++++......+++++++++++
(PID.TID 0000.0001) //     10 aa--e+++++++++++++++++e...-...-k++gd++gdd++++++++++++++++++++++++vkkknpsk--aafqrrrttusqqxtiiijb....j++++++++++++++++++++++++++++++++++++++++++++........-+++++++++++++++++++++++++++++++++++++++++++++++--a+++++++++++++
(PID.TID 0000.0001) //      9 d---l++++++++++++++++++.......c+++aa++aa++++++++++++++++++++++++urlkkkmo+++pprsrrsttmgghtnaabejjh--j++++++++++++++++++++++++++++++++++++++++++++......-l++++++++++++++++++++++++++++++++++++++++++++++++++++++++++++++++
(PID.TID 0000.0001) //      8 c--l+++++++++++++++++++......-o+++ff++ff++++++++++++++++++++++ohhikihhhmkee+yvsssttqjjnsxrdddfiie---ko++++++++++++++++++++++++++++++++++++++++++......f+++++++++++++++++++++++++++++++++++++++++++++++++++++++++++++++++
(PID.TID 0000.0001) //      7 ac+++++++++++++++++++++a......s+++ll++ll++++++++++++++++++++++ngggigffhof..k+rrtsssnmmuwvshgggc--....ek++++++++++++++++++++++++++++++++pifffkk+++ddekk++++++++++++++++++++++++++++++++++++++++++++++++++++++++++++++++++
(PID.TID 0000.0001) //      6 -++++++++++++++++++++++l-....a++++++++++++++++++++++++++++++++nhhhigggjtk..-+--swumhhowwwtiihb...-baafk+++++++++++++++++++++++++++++++skklliffm+++++++++++++++++++++++++++++++++++++++++++++++++++++++++++++++++++++++++
(PID.TID 0000.0001) //      5 l+++++++++++++++++++++++.....+++++++++++++++++++++++++++++++++oiijlmmnqvd...+..lzuliiquvwqkhe-...-bggee++++++++++++++++++++++++++++++nmjjottqpp+++++++++++++++++++++++++++++++++++++++++++++++++++++++++++++++++++++++++
(PID.TID 0000.0001) //      4 ++++++++++++++++++++++++kkkk++++++++++++++++++++++++++++++++++qmmosutttq-b.....m+tooooorl-.......--gcck++kk++kk+++++++++++++++++--++jgglpsuuvuu+++++++++++++++++++++++++++++++++++++++++++++++++++++++++++++++++++++++++
(PID.TID 0000.0001) //      3 +++++++++++++++++++++++++++++++++++++++++++++++++++++++++++++++++++++vrnci.....tvtrqjhhh-.........-jaak+++kk++kk+++++++++++++++-..+xtpprtvtppr++++++++++++++++++++++++++++++++++++++++++++++++++++++++++++++++++++++++++
(PID.TID 0000.0001) //      2 ++++++++++++++++++++++++++++++++++++++++++++++++++++++++++++++++++++++spil....kvtttskgc-...........h--++++kk++kk+++++++++++++++--+++wqppuxqnnp++++++++++++++++++++++++++++++++++++++++++++++++++++++++++++++++++++++++++
(PID.TID 0000.0001) //      1 ++++++++++++++++++++++++++++++++++++++++++++++++++++++++++++++++++++++++pg....kppqspec-............ekk++++kk++kk+++++++++++++++ll+++sommottrrs++++++++++++++++++++++++++++++++++++++++++++++++++++++++++ll++++++++++++++
(PID.TID 0000.0001) //      0 ++++++++++++++++++++++++++++++++++++++++++++++++++++++++++++++++++++++++-......aaao-...............k+kkl+kkk+kkk++++++++++++++rr++xtpmhhhjqtv+++++++++++++++++++++++++++++++++++++++++++++++++++++++++++kk++++++mmpu+++s
(PID.TID 0000.0001) //     -1 +++++++++++++++++++++++++++++++++++++++++++++++++++++++++++++++++++++++p..-.......b...............ar+++++++++++++++++++++++++++++++tnkhffgnt+++++++++++++++++++++++++++++++++++++++++++++++++++++++++++oo++++++kffqrpps+
(PID.TID 0000.0001) // =======================================================
(PID.TID 0000.0001) // END OF FIELD                                          =
(PID.TID 0000.0001) // =======================================================
(PID.TID 0000.0001) 
(PID.TID 0000.0001) // =======================================================
(PID.TID 0000.0001) // Field hFacS at iteration          0
(PID.TID 0000.0001) // CMIN =          2.000000000000000E-01
(PID.TID 0000.0001) // CMAX =          1.000000000000000E+00
(PID.TID 0000.0001) // CINT =          2.962962962962963E-02
(PID.TID 0000.0001) // SYMBOLS (CMIN->CMAX): -abcdefghijklmnopqrstuvwxyz+
(PID.TID 0000.0001) //                  0.0: .
(PID.TID 0000.0001) // RANGE I (Lo:Hi:Step):(    -1:   194:     1)
(PID.TID 0000.0001) // RANGE J (Lo:Hi:Step):(    34:    -1:    -1)
(PID.TID 0000.0001) // RANGE K (Lo:Hi:Step):(   1:   1:   1)
(PID.TID 0000.0001) // =======================================================
(PID.TID 0000.0001) K =   1
(PID.TID 0000.0001) //                I=8       I=18      I=28      I=34      I=44      I=54      I=64      I=70      I=80      I=90      I=96      I=106     I=116     I=126     I=132     I=142     I=152     I=162     I=168     I=178     I=188
(PID.TID 0000.0001) // |--J--|101234567|901234567|901234567|901234123|567890123|567890123|567890123|563456789|123456789|123456789|123456785|789012345|789012345|789012345|789078901|345678901|345678901|345678901|901234567|901234567|901234567|901234
(PID.TID 0000.0001) //     34 ++++++++++++++++++b...baap+k-........g...k+pquspec-...........ej-+++++k.+++++++++++++ihinomid......e+++++++.+++++++++++++++++++++++++++++++++++.+++++++++++++++++++mgecc--l++++++++.+++++++++++++++++++++++++++++++++++.
(PID.TID 0000.0001) //     33 ++++++++++++++++++a...ba-+e...............kaaro-..............elkkl++kkk++++++++++++mghklkiid......d++++++++++++++++++++++++++++++++++++++++++++++++++++++++++++++ysnhdb---+++++++++++++++++++++++++++++++++++++++++++++
(PID.TID 0000.0001) //     32 ++++++++++++++++-.ak+k+c-+e...bilg..lg.......db...............k++kl++kkk+++++++++++vkfilljije......d++++++++++++++++++++++++++++++++++++++++++++++++++++++++++++++ysnheba--c++++++++++++++++++++++++++++++++++++++++++++
(PID.TID 0000.0001) //     31 ++++++++++++++++-.++++++k+kfkd-cip-.ip-......................ar++++++++++++++++++++vhfilljikga.....+++++++++++++++++++++++++++++++++++++++++++++++++++++++++++++wuvrmlhbadca-l++++++++++++++++++++++++++++++++++++++++++
(PID.TID 0000.0001) //     30 ++++++++++++++++c+baf+++++++++-bfmk.fmk......................juw++++++++++++++++++rkddipsnkmhc-...k+++++++++++++++++++++++++++++++++++++++++++++++++++++++++++++qourmjjgdhha-hr+++++++++++++++++++++++++++++++++++++++++
(PID.TID 0000.0001) //     29 +++++++++++++++e..-afjm+uuvtl---bfnkbfnk.....................kki++++++++++++++++++rjddi++tpoifa...++++++++++++++++++++++++++++++++++++++++++++++++++++++++++++++loutnjjgfijgfhrv++++++++++++++++++++++++++++++++++++++++
(PID.TID 0000.0001) //     28 +++++++++++++++...-fhfekstspj--..beo.beol.......-............jhd++++++++++++++++++rjeejt++uoigc...+++++++++++++++++++++++++++++++++++++++++++++++++++++++++++++ldmvwoliinpooqqrv++++++++++++++++++++++++++++++++++++++++
(PID.TID 0000.0001) //     27 ++++++++++++++k..egdbcdgkmikjd-..-bj.-bjt+++...bma..........bfgd++++++++++++++++++++kint++vpige-..++++++++++++++++++++++++++++++++++++++++++++++++++++++++++++m--iwytniiffisxxvwv+++v+++++++++++++++++++++++++++++++++++
(PID.TID 0000.0001) //     26 +++++++++++++qkfimf...b-agcgnill..bj..bjutg++llphhe.........bfgl++++++++++++++++++++++j++qopjig-..++++++++++++++++++++++++++++++++++++++++++++++++++++++++++++l-.euzvnm-....dlpus+++s+++++++++++++++++++++++++++++++++++
(PID.TID 0000.0001) //     25 ++++++++++++xplmnnf...-..acgmil+..-i..-intg++++vhghhhkc-...-ill+++++++++++++++++++++++jh+popkih...++++++++++++++++++++++++++++++++++++++++++++++++++++++++++++l-.euxwt.........isw++sw++++++++++++++++++++++++++++++++++
(PID.TID 0000.0001) //     24 ++++++++++++xplmmlg--a-..abgiic+-..c-..chts+++++ighho++e...g+++++++++++++++++++++++..+jhjjqslih...++++++++++++++++++++++++++++++++++++++++++++++v+++++++++++++..-qxxxc..........afm+afm+++++++++++++++-c++++++++++++++++
(PID.TID 0000.0001) //     23 ++++++++++++ysnmmlhf-bifda-cfi..+..c+..cht++++++lfil+++ob-bc+++++++++++++++++++++++...++jhrwpli...a+++++++++++++++++++++++++++++++++++++++++++++km++++++++++++....nxi....+l.......-d..-d+++++++++++++.....-+++++++++++++
(PID.TID 0000.0001) //     22 ++++++++++++yojkmmjkfhmmha-cfe...+al.+al++++++++ofk+++++nigcl++++++++++++++++++++++....++h++rrna...a++++++++++++++++++++++++++++++++++++++++++++fgi+++++++++++e.........++++++e...-...-.-l++++++++++........-+++++++++++
(PID.TID 0000.0001) //     21 ++++++++++++ylfhlnljecfiha-cfe....af..af+++++++++ll++++++spjl++++++++++++++++++++++.....-.+++++j...a++++++++++++++++++++++++++++++++++++++++++++fghhjr+++++++++l-.....++++++++++++e.++e.-l++++j+++++.........+++++++++++
(PID.TID 0000.0001) //     20 +++++++++++++lfhlnlje--bfdbegd....af..af+++++++++l+++++++q+y+++++++++++++++++++++j++....-.++++++-cej++++++++++++++++++++++++++++++++++++++++++++iihhdfsz++++++l+++-.c+++++++++++++++++++++++++jb.++j.........+++++++++++
(PID.TID 0000.0001) //     19 ++++++++++++++lkoqpqi--bfdcb--...-fm.-fm++++++++++++++++ll++++ll++++++++-++++t+++j++....jj++++++kmp+++++++++++++++++++++++++++++++++++++++++++++llkidfrz+++++ll++++++++++++++++++++++++++++++++b..+j.........+++++++++++
(PID.TID 0000.0001) //     18 +++++++++++++++++++++bbehge-....-kr+-kr+++++++++++++++++llp++lal++++++++.+++ro++++++++..++++++++++o+++++++++++++++++++++++++++++++++++++++++++++jknoihr++++tcl++++++++++++++++++++++++++++++++++j.a...........++++++++++
(PID.TID 0000.0001) //     17 yy+++++++++++++++++++lghkkg.....lx++lx+++++++++++++++++++ll++lal+++++r++.abqro+++++++++++++++++++fim++++++++++++++++++++++++++++++++++++++++++++iimooqvz+++n-+++++++++++++++++++++++++++++++++++j.............++++++++++
(PID.TID 0000.0001) //     16 sstm+++++++++++++++++rhfghe.....r+++r+++++++++++++++++++++ls+pl++++++rl-+a.eq++fc++++++++++++++++dbj++++++++++++++++++++++++++++++++++++++++o+++iiijkntx+++l-+++++++++++++++++++++++++++++++++++j.............++++++++++
(PID.TID 0000.0001) //     15 pnnghl++++++++++++++++l--aa.....+++++++++++++++++++++++++++s++++++++++l-+k.-kxwfccbj++++++++++++udah++++++++++++++++++++++++++++++++++++++++okl+geddegins++.+++++++++++++++++++++++++++++++++++++.............++++++++++
(PID.TID 0000.0001) //     14 mhhehl++++++++++++++++l........a+++++++++++++++++++++++++++++++++++++++++k.-guwjccbj+++++++++++uqe-hj++++++++++++++++++++++++++++++++++++++++kl+a.....--....+++++++++++++++++++++++++++++++++++++a..i+j.......++++++++++
(PID.TID 0000.0001) //     13 hedci+++++++++++++++++g........e+++++++++++++++++++++++++++++++++++++x+++k.-gsvwvsll+++++++r+++gb-.jjk++++++++++++++++++++++++++++++++++++++++++............++++++++++++++++++++++++++++++++++++++.cn++......+++++++++++
(PID.TID 0000.0001) //     12 bbccn+++++++++++++++++c.......-g+++l+++l++++++++++++++++++++++++++sttt+++cabfqstuuqp+++++wsqtna....++k++++++++++++++++++++++++++++++++++++++++++...........++++++++++++++++++++++++++++++++++++++++++++.....a+++++++++++
(PID.TID 0000.0001) //     11 aa-d++++++++++++++++++c.......al++gd++gd+++++++++++++++++++++++++vkknpswk-aafqsrrttuusqxytiijka....+++++++++++++++++++++++++++++++++++++++++++++.........b+++++++++++++++++++++++++++++++++++++++++++++.....++++++++++++
(PID.TID 0000.0001) //     10 a--e++++++++++++++++++e...-..-k+++ad++ad++++++++++++++++++++++++urkkkmoqk-cafqsrrtttmghtxnabejb...j+++++++++++++++++++++++++++++++++++++++++++++.......-++++++++++++++++++++++++++++++++++++++++++++++++-a++++++++++++++
(PID.TID 0000.0001) //      9 c--l+++++++++++++++++++......c++++a+++a+++++++++++++++++++++++ohilkihhmpke+prtsrsutqjghtxnabeikie--ko+++++++++++++++++++++++++++++++++++++++++++.....-l+++++++++++++++++++++++++++++++++++++++++++++++++++++++++++++++++
(PID.TID 0000.0001) //      8 c-l++++++++++++++++++++......o++++f+++f+++++++++++++++++++++++nggiigfhmpf.k+yrssstsnjnswvrddfgc--...ek+++++++++++++++++++++++++++++++++piffkk+++.....f++++++++++++++++++++++++++++++++++++++++++++++++++++++++++++++++++
(PID.TID 0000.0001) //      7 c++++++++++++++++++++++a.....s++++l+++l+++++++++++++++++++++++nggiigfhouf.-++-ststmhmuxwvshghb..-...ek++++++++++++++++++++++++++++++++skiffifm+++dekk+++++++++++++++++++++++++++++++++++++++++++++++++++++++++++++++++++
(PID.TID 0000.0001) //      6 +++++++++++++++++++++++l....a+++++++++++++++++++++++++++++++++nhhiiggjtxd..++.lwwulhouvwwqihe-..-bfafe+++++++++++++++++++++++++++++++nmjlnlifm++++++++++++++++++++++++++++++++++++++++++++++++++++++++++++++++++++++++++
(PID.TID 0000.0001) //      5 ++++++++++++++++++++++++....++++++++++++++++++++++++++++++++++oijlnmnqtqd.....l+ztlioorul-......--jgce+++k+++k++++++++++++++++++-+++jgljottuqp++++++++++++++++++++++++++++++++++++++++++++++++++++++++++++++++++++++++++
(PID.TID 0000.0001) //      4 ++++++++++++++++++++++++kkk+++++++++++++++++++++++++++++++++++qmosuuttrneb....myvtoojhhh-........-jgak+++kk++kk++++++++++++++++-.++xjglpsutpru++++++++++++++++++++++++++++++++++++++++++++++++++++++++++++++++++++++++++
(PID.TID 0000.0001) //      3 +++++++++++++++++++++++++++++++++++++++++++++++++++++++++++++++++++++vrnii....tvttrqjgc-..........hj-k++++k+++k++++++++++++++++-.++xtpptvwqnp+++++++++++++++++++++++++++++++++++++++++++++++++++++++++++++++++++++++++++
(PID.TID 0000.0001) //      2 ++++++++++++++++++++++++++++++++++++++++++++++++++++++++++++++++++++++sppg...k+pquspec-...........ej-+++++k+++k++++++++++++++++-++++somotvqnp+++++++++++++++++++++++++++++++++++++++++++++++++++++++++++l+++++++++++++++
(PID.TID 0000.0001) //      1 ++++++++++++++++++++++++++++++++++++++++++++++++++++++++++++++++++++++++-.....kaaro-..............elkkl++kk++kk+++++++++++++++rl++xtpmhhjqtrs+++++++++++++++++++++++++++++++++++++++++++++++++++++++++++k+++++++mpu++++s
(PID.TID 0000.0001) //      0 +++++++++++++++++++++++++++++++++++++++++++++++++++++++++++++++++++++++p.g.......db...............k++kl++kkk++k+++++++++++++++r+++xtnkhfgntv+++++++++++++++++++++++++++++++++++++++++++++++++++++++++++ok++++++kfpurps++
(PID.TID 0000.0001) //     -1 +++++++++++++++++++++++++++++++++++++++++++++++++++++++++++++++++++++++pip-......................ar++++++++++++++++++++++++++++++++tkkhfgmt++++++++++++++++++++++++++++++++++++++++++++++++++++++++++++o+++++++kfqvpnrv+
(PID.TID 0000.0001) // =======================================================
(PID.TID 0000.0001) // END OF FIELD                                          =
(PID.TID 0000.0001) // =======================================================
(PID.TID 0000.0001) 
(PID.TID 0000.0001) GAD_INIT_FIXED: GAD_OlMinSize=  2  0  1
(PID.TID 0000.0001) 
(PID.TID 0000.0001) // ===================================
(PID.TID 0000.0001) // GAD parameters :
(PID.TID 0000.0001) // ===================================
(PID.TID 0000.0001) tempAdvScheme =   /* Temp. Horiz.Advection scheme selector */
(PID.TID 0000.0001)                       2
(PID.TID 0000.0001)     ;
(PID.TID 0000.0001) tempVertAdvScheme =   /* Temp. Vert. Advection scheme selector */
(PID.TID 0000.0001)                       2
(PID.TID 0000.0001)     ;
(PID.TID 0000.0001) tempMultiDimAdvec =   /* use Muti-Dim Advec method for Temp */
(PID.TID 0000.0001)                   F
(PID.TID 0000.0001)     ;
(PID.TID 0000.0001) tempSOM_Advection = /* use 2nd Order Moment Advection for Temp */
(PID.TID 0000.0001)                   F
(PID.TID 0000.0001)     ;
(PID.TID 0000.0001) AdamsBashforthGt = /* apply Adams-Bashforth extrapolation on Gt */
(PID.TID 0000.0001)                   T
(PID.TID 0000.0001)     ;
(PID.TID 0000.0001) AdamsBashforth_T = /* apply Adams-Bashforth extrapolation on Temp */
(PID.TID 0000.0001)                   F
(PID.TID 0000.0001)     ;
(PID.TID 0000.0001) saltAdvScheme =   /* Salt. Horiz.advection scheme selector */
(PID.TID 0000.0001)                       3
(PID.TID 0000.0001)     ;
(PID.TID 0000.0001) saltVertAdvScheme =   /* Salt. Vert. Advection scheme selector */
(PID.TID 0000.0001)                       3
(PID.TID 0000.0001)     ;
(PID.TID 0000.0001) saltMultiDimAdvec =   /* use Muti-Dim Advec method for Salt */
(PID.TID 0000.0001)                   F
(PID.TID 0000.0001)     ;
(PID.TID 0000.0001) saltSOM_Advection = /* use 2nd Order Moment Advection for Salt */
(PID.TID 0000.0001)                   F
(PID.TID 0000.0001)     ;
(PID.TID 0000.0001) AdamsBashforthGs = /* apply Adams-Bashforth extrapolation on Gs */
(PID.TID 0000.0001)                   T
(PID.TID 0000.0001)     ;
(PID.TID 0000.0001) AdamsBashforth_S = /* apply Adams-Bashforth extrapolation on Salt */
(PID.TID 0000.0001)                   F
(PID.TID 0000.0001)     ;
(PID.TID 0000.0001) // ===================================
- INPHYS: k,SIG, SIGH,   SIGL,   WVI(1),  WVI(2):
  1   0.0750   0.1500  -2.5903   0.8306   0.5757
  2   0.2500   0.3500  -1.3863   1.4427   0.4854
  3   0.5000   0.6500  -0.6931   2.2818   0.5987
  4   0.7750   0.9000  -0.2549   4.9116   0.7344
  5   0.9500   1.0000  -0.0513   0.0000   0.0377
- INPHYS: end setup WVI.
(PID.TID 0000.0001)  AIM_READ_PHYSPARMS: opening data.aimphys
(PID.TID 0000.0001)  OPEN_COPY_DATA_FILE: opening file data.aimphys
(PID.TID 0000.0001) // =======================================================
(PID.TID 0000.0001) // Parameter file "data.aimphys"
(PID.TID 0000.0001) // =======================================================
(PID.TID 0000.0001) ># AIM physics package parameters:
(PID.TID 0000.0001) >
(PID.TID 0000.0001) >C--   AIM interface parameter (namelist AIM_PARAMS):
(PID.TID 0000.0001) >#     aim_useFMsurfBC :: select surface B.C. from Franco Molteni
(PID.TID 0000.0001) >#     aim_useMMsurfFc :: select Monthly Mean surface forcing (e.g., NCEP)
(PID.TID 0000.0001) >#     aim_surfPotTemp :: surf.Temp input file is in Pot.Temp (aim_useMMsurfFc)
(PID.TID 0000.0001) >#     aim_energPrecip :: account for energy of precipitation (snow & rain temp)
(PID.TID 0000.0001) >#     aim_splitSIOsFx :: compute separately Sea-Ice & Ocean surf. Flux
(PID.TID 0000.0001) >#     aim_LandFile :: file name for Land fraction [0-1]
(PID.TID 0000.0001) >#     aim_MMsufx   :: sufix for all Monthly Mean surface forcing files
(PID.TID 0000.0001) >#     aim_MMsufxLength :: Length of sufix (Monthly Mean surf. forc. files)
(PID.TID 0000.0001) >#     aim_albFile  :: file name for Albedo input file   (F.M. surfBC)
(PID.TID 0000.0001) >#     aim_vegFile  :: file name for vegetation fraction (F.M. surfBC)
(PID.TID 0000.0001) >#     aim_sstFile  :: file name for  Sea.Surf.Temp      (F.M. surfBC)
(PID.TID 0000.0001) >#     aim_lstFile  :: file name for Land.Surf.Temp      (F.M. surfBC)
(PID.TID 0000.0001) >#     aim_oiceFile :: file name for Sea Ice fraction    (F.M. surfBC)
(PID.TID 0000.0001) >#     aim_snowFile :: file name for Snow depth          (F.M. surfBC)
(PID.TID 0000.0001) >#     aim_swcFile  :: file name for Soil Water content  (F.M. surfBC)
(PID.TID 0000.0001) >#     aim_dragStrato :: stratospheric-drag damping time scale (s)
(PID.TID 0000.0001) >#     aim_clrSkyDiag :: compute clear-sky radiation for diagnostics
(PID.TID 0000.0001) >#     aim_taveFreq :: Frequency^-1 for time-average output (s)
(PID.TID 0000.0001) >#     aim_diagFreq :: Frequency^-1 for diagnostic output (s)
(PID.TID 0000.0001) >#     aim_tendFreq :: Frequency^-1 for tendencies output (s)
(PID.TID 0000.0001) > &AIM_PARAMS
(PID.TID 0000.0001) >#  aim_useFMsurfBC=.FALSE.,
(PID.TID 0000.0001) >#  aim_useMMsurfFc=.TRUE.,
(PID.TID 0000.0001) >#  aim_surfPotTemp=.TRUE.,
(PID.TID 0000.0001) >   aim_energPrecip=.TRUE.,
(PID.TID 0000.0001) >   aim_splitSIOsFx=.TRUE.,
(PID.TID 0000.0001) >   aim_LandFile= 'landFrc.cpl_FM.bin',
(PID.TID 0000.0001) >   aim_albFile = 'albedo_cs32.bin',
(PID.TID 0000.0001) >   aim_vegFile = 'vegetFrc.cpl_FM.bin',
(PID.TID 0000.0001) >   aim_sstFile = 'seaSurfT.cpl_FM.bin',
(PID.TID 0000.0001) >   aim_lstFile = 'lndSurfT.cpl_FM.bin',
(PID.TID 0000.0001) >   aim_oiceFile= 'seaIce.cpl3FM.bin',
(PID.TID 0000.0001) >   aim_snowFile= 'snowDepth.cpl_FM.bin',
(PID.TID 0000.0001) >   aim_swcFile = 'soilMoist.cpl_FM.bin',
(PID.TID 0000.0001) >   aim_dragStrato= 2592000.,
(PID.TID 0000.0001) >#  aim_clrSkyDiag=.TRUE.,
(PID.TID 0000.0001) >#  aim_diagFreq=3600.,
(PID.TID 0000.0001) > /
(PID.TID 0000.0001) >
(PID.TID 0000.0001) >#--   Physical constants
(PID.TID 0000.0001) >#       P0    = reference pressure                 [Pa=N/m2]
(PID.TID 0000.0001) >#       GG    = gravity accel.                     [m/s2]
(PID.TID 0000.0001) >#       RD    = gas constant for dry air           [J/kg/K]
(PID.TID 0000.0001) >#       CP    = specific heat at constant pressure [J/kg/K]
(PID.TID 0000.0001) >#       ALHC  = latent heat of condensation        [J/g]
(PID.TID 0000.0001) >#       ALHF  = latent heat of freezing            [J/g]
(PID.TID 0000.0001) >#       SBC   = Stefan-Boltzmann constant
(PID.TID 0000.0001) >#     rainCP  = heat capacity of liquid water      [J/g/K]
(PID.TID 0000.0001) >#     tFreeze = freezing temperature of pure water [K]
(PID.TID 0000.0001) >
(PID.TID 0000.0001) >#--   Constants for forcing fields (namelist AIM_PAR_FOR):
(PID.TID 0000.0001) >#      SOLC   = Solar constant (area averaged) in W/m^2
(PID.TID 0000.0001) >#      ALBSEA = Albedo over sea
(PID.TID 0000.0001) >#      ALBICE = Albedo over sea ice (for ice fraction = 1)
(PID.TID 0000.0001) >#      ALBSN  = Albedo over snow (for snow depth > SDALB)
(PID.TID 0000.0001) >#      SDALB  = Snow depth (mm water) corresponding to maximum albedo
(PID.TID 0000.0001) >#      SWCAP  = Soil wetness at field capacity (volume fraction)
(PID.TID 0000.0001) >#      SWWIL  = Soil wetness at wilting point  (volume fraction)
(PID.TID 0000.0001) >#      hSnowWetness :: snow depth (m) corresponding to maximum wetness
(PID.TID 0000.0001) > &AIM_PAR_FOR
(PID.TID 0000.0001) > /
(PID.TID 0000.0001) >
(PID.TID 0000.0001) >#--   Constants for surface fluxes (namelist AIM_PAR_SFL):
(PID.TID 0000.0001) >#      FWIND0 = ratio of near-sfc wind to lowest-level wind
(PID.TID 0000.0001) >#      FTEMP0 = weight for near-sfc temperature extrapolation (0-1) :
(PID.TID 0000.0001) >#               1 : linear extrapolation from two lowest levels
(PID.TID 0000.0001) >#               0 : constant potential temperature ( = lowest level)
(PID.TID 0000.0001) >#      FHUM0  = weight for near-sfc specific humidity extrapolation (0-1) :
(PID.TID 0000.0001) >#               1 : extrap. with constant relative hum. ( = lowest level)
(PID.TID 0000.0001) >#               0 : constant specific hum. ( = lowest level)
(PID.TID 0000.0001) >#      CDL    = drag coefficient for momentum over land
(PID.TID 0000.0001) >#      CDS    = drag coefficient for momentum over sea
(PID.TID 0000.0001) >#      CHL    = heat exchange coefficient over land
(PID.TID 0000.0001) >#      CHS    = heat exchange coefficient over sea
(PID.TID 0000.0001) >#      VGUST  = wind speed for sub-grid-scale gusts
(PID.TID 0000.0001) >#      CTDAY  = daily-cycle correction (dTskin/dSSRad)
(PID.TID 0000.0001) >#      DTHETA = Potential temp. gradient for stability correction
(PID.TID 0000.0001) >#      dTstab = potential temp. increment for stability function derivative
(PID.TID 0000.0001) >#      FSTAB  = Amplitude of stability correction (fraction)
(PID.TID 0000.0001) >#      HDRAG  = Height scale for orographic correction
(PID.TID 0000.0001) >#      FHDRAG = Amplitude of orographic correction (fraction)
(PID.TID 0000.0001) > &AIM_PAR_SFL
(PID.TID 0000.0001) >#  FTEMP0 = 0.,
(PID.TID 0000.0001) >#  FHUM0  = 0.,
(PID.TID 0000.0001) >#  dTstab = 0.,
(PID.TID 0000.0001) > /
(PID.TID 0000.0001) >
(PID.TID 0000.0001) >#--   Convection constants (namelist AIM_PAR_CNV):
(PID.TID 0000.0001) >#      PSMIN  = minimum (norm.) sfc. pressure for the occurrence of convection
(PID.TID 0000.0001) >#      TRCNV  = time of relaxation (in hours) towards reference state
(PID.TID 0000.0001) >#      QBL    = specific hum. threshold in the boundary layer
(PID.TID 0000.0001) >#      RHBL   = relative hum. threshold in the boundary layer
(PID.TID 0000.0001) >#      RHIL   = rel. hum. threshold in intermed. layers for secondary mass flux
(PID.TID 0000.0001) >#      ENTMAX = max. entrainment as a fraction of cloud-base mass flux
(PID.TID 0000.0001) >#      SMF    = ratio between secondary and primary mass flux at cloud-base
(PID.TID 0000.0001) > &AIM_PAR_CNV
(PID.TID 0000.0001) > /
(PID.TID 0000.0001) >
(PID.TID 0000.0001) >#--   Constants for large-scale condensation (namelist AIM_PAR_LSC):
(PID.TID 0000.0001) >#      TRLSC  = Relaxation time (in hours) for specific humidity
(PID.TID 0000.0001) >#      RHLSC  = Maximum relative humidity threshold (at sigma=1)
(PID.TID 0000.0001) >#      DRHLSC = Vertical range of relative humidity threshold
(PID.TID 0000.0001) >#      QSMAX  = used to define the maximum latent heat release
(PID.TID 0000.0001) > &AIM_PAR_LSC
(PID.TID 0000.0001) > /
(PID.TID 0000.0001) >
(PID.TID 0000.0001) >#--   Radiation constants (namelist AIM_PAR_RAD):
(PID.TID 0000.0001) >#      RHCL1  = relative hum. corresponding to cloud cover = 0
(PID.TID 0000.0001) >#      RHCL2  = relative hum. corresponding to cloud cover = 1
(PID.TID 0000.0001) >#      QACL1  = specific hum. threshold for cloud cover in the upper troposphere
(PID.TID 0000.0001) >#      QACL2  = specific hum. threshold for cloud cover in the upper troposphere
(PID.TID 0000.0001) >#      ALBCL  = cloud albedo (for cloud cover = 1)
(PID.TID 0000.0001) >#      EPSSW  = fraction of incoming solar radiation absorbed by ozone
(PID.TID 0000.0001) >#      EPSLW  = fraction of surface LW radiation emitted directly to space
(PID.TID 0000.0001) >#      EMISFC = longwave surface emissivity
(PID.TID 0000.0001) >#--:            shortwave absorptivities (for dp = 10^5 Pa) :
(PID.TID 0000.0001) >#      ABSDRY = abs. of dry air      (visible band)
(PID.TID 0000.0001) >#      ABSAER = abs. of aerosols     (visible band)
(PID.TID 0000.0001) >#      ABSWV1 = abs. of water vapour (visible band, for dq = 1 g/kg)
(PID.TID 0000.0001) >#      ABSWV2 = abs. of water vapour (near IR band, for dq = 1 g/kg)
(PID.TID 0000.0001) >#      ABSCL1 = abs. of clouds       (visible band, constant term)
(PID.TID 0000.0001) >#      ABSCL2 = abs. of clouds       (visible band, for dw = 1 g/kg)
(PID.TID 0000.0001) >#--:            longwave absorptivities (per dp = 10^5 Pa) :
(PID.TID 0000.0001) >#      ABLWIN = abs. of air in "window" band
(PID.TID 0000.0001) >#      ABLCO2 = abs. of air in CO2 band
(PID.TID 0000.0001) >#      ABLWV1 = abs. of water vapour in H2O band 1 (weak),   for dq = 1 g/kg
(PID.TID 0000.0001) >#      ABLWV2 = abs. of water vapour in H2O band 2 (strong), for dq = 1 g/kg
(PID.TID 0000.0001) >#      ABLCL1 = abs. of clouds       in "window" band,       constant term
(PID.TID 0000.0001) >#      ABLCL2 = abs. of clouds       in "window" band,       for dw = 1 g/kg
(PID.TID 0000.0001) > &AIM_PAR_RAD
(PID.TID 0000.0001) > /
(PID.TID 0000.0001) >
(PID.TID 0000.0001) >#--   Constants for vertical dif. and sh. conv. (namelist AIM_PAR_VDI):
(PID.TID 0000.0001) >#      TRSHC  = relaxation time (in hours) for shallow convection
(PID.TID 0000.0001) >#      TRVDI  = relaxation time (in hours) for moisture diffusion
(PID.TID 0000.0001) >#      TRVDS  = relaxation time (in hours) for super-adiab. conditions
(PID.TID 0000.0001) >#      RHGRAD = maximum gradient of relative humidity (d_RH/d_sigma)
(PID.TID 0000.0001) >#      SEGRAD = minimum gradient of dry static energy (d_DSE/d_phi)
(PID.TID 0000.0001) > &AIM_PAR_VDI
(PID.TID 0000.0001) > /
(PID.TID 0000.0001) >
(PID.TID 0000.0001) 
(PID.TID 0000.0001)  AIM_READ_PHYSPARMS: finished reading data.aimphys
(PID.TID 0000.0001) 
(PID.TID 0000.0001) // ===================================
(PID.TID 0000.0001) // AIM physics parameters :
(PID.TID 0000.0001) // ===================================
(PID.TID 0000.0001) useLand =   /* use Land package for surf.BC over land  */
(PID.TID 0000.0001)                   T
(PID.TID 0000.0001)     ;
(PID.TID 0000.0001) aim_useFMsurfBC =   /* F.Molteni surf. BC scheme on/off flag */
(PID.TID 0000.0001)                   T
(PID.TID 0000.0001)     ;
(PID.TID 0000.0001) aim_useMMsurfFc =   /* Monthly Mean surf. Forcing on/off flag */
(PID.TID 0000.0001)                   F
(PID.TID 0000.0001)     ;
(PID.TID 0000.0001) aim_surfForc_TimePeriod = /* Length of forcing time period (s) */
(PID.TID 0000.0001)                 2.592000000000000E+06
(PID.TID 0000.0001)     ;
(PID.TID 0000.0001) aim_surfForc_NppCycle   = /* Number of time period per Cycle */
(PID.TID 0000.0001)                      12
(PID.TID 0000.0001)     ;
(PID.TID 0000.0001) aim_surfForc_TransRatio = /* transition ratio from one month to the next */
(PID.TID 0000.0001)                 1.000000000000000E+00
(PID.TID 0000.0001)     ;
(PID.TID 0000.0001) aim_surfPotTemp =   /* Surf Temp file in Pot.Temp on/off flag */
(PID.TID 0000.0001)                   F
(PID.TID 0000.0001)     ;
(PID.TID 0000.0001) aim_energPrecip = /* account for energy of precip. on/off flag */
(PID.TID 0000.0001)                   T
(PID.TID 0000.0001)     ;
(PID.TID 0000.0001) aim_splitSIOsFx = /* separate Sea-Ice & Ocean Flux on/off flag */
(PID.TID 0000.0001)                   T
(PID.TID 0000.0001)     ;
(PID.TID 0000.0001) aim_dragStrato= /* stratospheric-drag damping time scale (s) */
(PID.TID 0000.0001)                 2.592000000000000E+06
(PID.TID 0000.0001)     ;
(PID.TID 0000.0001) aim_clrSkyDiag = /* do clear-sky radiation diagnostics */
(PID.TID 0000.0001)                   F
(PID.TID 0000.0001)     ;
(PID.TID 0000.0001) aim_taveFreq =   /* Frequency^-1 for time-Aver. output (s) */
(PID.TID 0000.0001)                 2.592000000000000E+06
(PID.TID 0000.0001)     ;
(PID.TID 0000.0001) aim_diagFreq =   /* Frequency^-1 for diagnostic output (s) */
(PID.TID 0000.0001)                 2.592000000000000E+06
(PID.TID 0000.0001)     ;
(PID.TID 0000.0001) aim_tendFreq =   /* Frequency^-1 for tendencies output (s) */
(PID.TID 0000.0001)                 0.000000000000000E+00
(PID.TID 0000.0001)     ;
(PID.TID 0000.0001) aim_selectOceAlbedo =   /* Ocean albedo(latitude) flag */
(PID.TID 0000.0001)                       0
(PID.TID 0000.0001)     ;
(PID.TID 0000.0001) AIM_FOR:   SOLC =   /* Solar constant (area averaged) in W/m2 */
(PID.TID 0000.0001)                 3.420000000000000E+02
(PID.TID 0000.0001)     ;
(PID.TID 0000.0001) AIM_FOR:  OBLIQ =   /* Obliquity (degree) used with ALLOW_INSOLATION */
(PID.TID 0000.0001)                 2.345000000000000E+01
(PID.TID 0000.0001)     ;
(PID.TID 0000.0001) AIM_FOR: ALBSEA =   /* Albedo over sea [0-1]      */
(PID.TID 0000.0001)                 7.000000000000001E-02
(PID.TID 0000.0001)     ;
(PID.TID 0000.0001) AIM_FOR: ALBICE =   /* Albedo over sea ice (for ice fraction =1) */
(PID.TID 0000.0001)                 6.000000000000000E-01
(PID.TID 0000.0001)     ;
(PID.TID 0000.0001) AIM_FOR:  ALBSN =   /* Albedo over snow (for snow depth > SDALB) */
(PID.TID 0000.0001)                 6.000000000000000E-01
(PID.TID 0000.0001)     ;
(PID.TID 0000.0001) AIM_FOR:  SDALB =   /* Snow depth (mm H2O) corresp. maximum albedo */
(PID.TID 0000.0001)                 6.000000000000000E+01
(PID.TID 0000.0001)     ;
(PID.TID 0000.0001) AIM_FOR:  SWCAP =   /* Soil wetness at field capacity (Vol.fract.) */
(PID.TID 0000.0001)                 3.000000000000000E-01
(PID.TID 0000.0001)     ;
(PID.TID 0000.0001) AIM_FOR:  SWWIL =   /* Soil wetness at wilting point  (Vol.fract.) */
(PID.TID 0000.0001)                 1.700000000000000E-01
(PID.TID 0000.0001)     ;
(PID.TID 0000.0001) AIM_FOR: hSnowWetness=   /* snow depth corresp. maximum wetness (m) */
(PID.TID 0000.0001)                 1.000000000000000E-02
(PID.TID 0000.0001)     ;
(PID.TID 0000.0001) AIM_SFL: FWIND0 =   /* ratio of near-sfc wind to lowest-level wind */
(PID.TID 0000.0001)                 6.000000000000000E-01
(PID.TID 0000.0001)     ;
(PID.TID 0000.0001) AIM_SFL: FTEMP0 =  /* weight for near-sfc temp. extrapolation (0-1)*/
(PID.TID 0000.0001)                 1.000000000000000E+00
(PID.TID 0000.0001)     ;
(PID.TID 0000.0001) AIM_SFL:  FHUM0 =  /* weight for near-sfc spec.humid. extrap. (0-1)*/
(PID.TID 0000.0001)                 1.000000000000000E+00
(PID.TID 0000.0001)     ;
(PID.TID 0000.0001) AIM_SFL:    CDL =   /* drag coefficient for momentum over land */
(PID.TID 0000.0001)                 1.800000000000000E-03
(PID.TID 0000.0001)     ;
(PID.TID 0000.0001) AIM_SFL:    CDS =   /* drag coefficient for momentum over sea  */
(PID.TID 0000.0001)                 8.000000000000000E-04
(PID.TID 0000.0001)     ;
(PID.TID 0000.0001) AIM_SFL:    CHL =   /* heat exchange coefficient over land */
(PID.TID 0000.0001)                 1.200000000000000E-03
(PID.TID 0000.0001)     ;
(PID.TID 0000.0001) AIM_SFL:    CHS =   /* heat exchange coefficient over sea  */
(PID.TID 0000.0001)                 8.000000000000000E-04
(PID.TID 0000.0001)     ;
(PID.TID 0000.0001) AIM_SFL:  VGUST =   /* wind speed [m/s] for sub-grid-scale gusts */
(PID.TID 0000.0001)                 5.000000000000000E+00
(PID.TID 0000.0001)     ;
(PID.TID 0000.0001) AIM_SFL:  CTDAY =   /* daily-cycle correction (dTskin/dSSRad) */
(PID.TID 0000.0001)                 1.000000000000000E-02
(PID.TID 0000.0001)     ;
(PID.TID 0000.0001) AIM_SFL: DTHETA =   /* Pot.Temp. gradient for stability correction */
(PID.TID 0000.0001)                 3.000000000000000E+00
(PID.TID 0000.0001)     ;
(PID.TID 0000.0001) AIM_SFL: dTstab =   /* Pot.Temp. increment for stab.funct. derivative */
(PID.TID 0000.0001)                 1.000000000000000E+00
(PID.TID 0000.0001)     ;
(PID.TID 0000.0001) AIM_SFL:  FSTAB =   /* Amplitude of stability correction (fract.) */
(PID.TID 0000.0001)                 6.700000000000000E-01
(PID.TID 0000.0001)     ;
(PID.TID 0000.0001) AIM_SFL:  HDRAG =   /* Height scale for orographic correction */
(PID.TID 0000.0001)                 2.000000000000000E+03
(PID.TID 0000.0001)     ;
(PID.TID 0000.0001) AIM_SFL: FHDRAG =   /* Amplitude of orographic correction (fract.)*/
(PID.TID 0000.0001)                 8.000000000000000E-01
(PID.TID 0000.0001)     ;
(PID.TID 0000.0001) AIM_CNV:  PSMIN =   /* min norm.sfc.P. for occurrence of convect. */
(PID.TID 0000.0001)                 7.000000000000000E-01
(PID.TID 0000.0001)     ;
(PID.TID 0000.0001) AIM_CNV:  TRCNV =   /* time of relaxation [h] towards ref state */
(PID.TID 0000.0001)                 6.000000000000000E+00
(PID.TID 0000.0001)     ;
(PID.TID 0000.0001) AIM_CNV:    QBL =   /* specific hum. threshold in the Bound.layer */
(PID.TID 0000.0001)                 1.500000000000000E+01
(PID.TID 0000.0001)     ;
(PID.TID 0000.0001) AIM_CNV:   RHBL =   /* relative hum. threshold in the Bound.layer */
(PID.TID 0000.0001)                 8.000000000000000E-01
(PID.TID 0000.0001)     ;
(PID.TID 0000.0001) AIM_CNV:   RHIL =   /* rel.hum. threshold (intern) for 2nd mass.Flx*/
(PID.TID 0000.0001)                 7.000000000000000E-01
(PID.TID 0000.0001)     ;
(PID.TID 0000.0001) AIM_CNV: ENTMAX =   /* time of relaxation [h] towards neutral eq. */
(PID.TID 0000.0001)                 5.000000000000000E-01
(PID.TID 0000.0001)     ;
(PID.TID 0000.0001) AIM_CNV:    SMF =   /* ratio 2ndary/primary mass.Flx at cloud-base*/
(PID.TID 0000.0001)                 5.000000000000000E-01
(PID.TID 0000.0001)     ;
(PID.TID 0000.0001) AIM_LSC:  TRLSC =   /* relaxation time [h] for supersat. spec.hum. */
(PID.TID 0000.0001)                 4.000000000000000E+00
(PID.TID 0000.0001)     ;
(PID.TID 0000.0001) AIM_LSC:  RHLSC =   /* Max rel.humidity threshold (at sigma=1) */
(PID.TID 0000.0001)                 9.000000000000000E-01
(PID.TID 0000.0001)     ;
(PID.TID 0000.0001) AIM_LSC: DRHLSC =   /* Vertical range of rel.humidity threshold */
(PID.TID 0000.0001)                 1.000000000000000E-01
(PID.TID 0000.0001)     ;
(PID.TID 0000.0001) AIM_LSC:  QSMAX =   /* Define the maximum latent heat release */
(PID.TID 0000.0001)                 5.000000000000000E+01
(PID.TID 0000.0001)     ;
(PID.TID 0000.0001) AIM_RAD:  RHCL1 =   /*  rel.hum. corresponding to cloud cover = 0 */
(PID.TID 0000.0001)                 4.500000000000000E-01
(PID.TID 0000.0001)     ;
(PID.TID 0000.0001) AIM_RAD:  RHCL2 =   /*  rel.hum. corresponding to cloud cover = 1 */
(PID.TID 0000.0001)                 8.500000000000000E-01
(PID.TID 0000.0001)     ;
(PID.TID 0000.0001) AIM_RAD:  QACL1 =   /* spec.hum. threshold for cloud, upper trop. */
(PID.TID 0000.0001)                 1.000000000000000E-01
(PID.TID 0000.0001)     ;
(PID.TID 0000.0001) AIM_RAD:  QACL2 =   /* spec.hum. threshold for cloud, upper trop. */
(PID.TID 0000.0001)                 1.000000000000000E+00
(PID.TID 0000.0001)     ;
(PID.TID 0000.0001) AIM_RAD:  ALBCL =   /*  cloud albedo (for cloud cover = 1) */
(PID.TID 0000.0001)                 4.000000000000000E-01
(PID.TID 0000.0001)     ;
(PID.TID 0000.0001) AIM_RAD:  EPSSW =   /*  fract. of inc.solar rad. absorbed by ozone */
(PID.TID 0000.0001)                 1.500000000000000E-02
(PID.TID 0000.0001)     ;
(PID.TID 0000.0001) AIM_RAD:  EPSLW =   /*  fract. of sfc LW emitted directly to space */
(PID.TID 0000.0001)                 0.000000000000000E+00
(PID.TID 0000.0001)     ;
(PID.TID 0000.0001) AIM_RAD: EMISFC =   /*  longwave surface emissivity */
(PID.TID 0000.0001)                 9.800000000000000E-01
(PID.TID 0000.0001)     ;
(PID.TID 0000.0001)  AIM_RAD : ShortWave absorptivities (for dp = 10^5 Pa) :
(PID.TID 0000.0001) AIM_RAD: ABSDRY =   /* abs. of dry air (visible band) */
(PID.TID 0000.0001)                 3.300000000000000E-02
(PID.TID 0000.0001)     ;
(PID.TID 0000.0001) AIM_RAD: ABSAER =   /* abs. of aerosols (visible band) */
(PID.TID 0000.0001)                 3.300000000000000E-02
(PID.TID 0000.0001)     ;
(PID.TID 0000.0001) AIM_RAD: ABSWV1 =   /* abs. of water vap. (vis. band)(/dq, 1g/kg) */
(PID.TID 0000.0001)                 2.200000000000000E-02
(PID.TID 0000.0001)     ;
(PID.TID 0000.0001) AIM_RAD: ABSWV2 =   /* abs. of water vap.(near IR bd)(/dq, 1g/kg) */
(PID.TID 0000.0001)                 1.500000000000000E+01
(PID.TID 0000.0001)     ;
(PID.TID 0000.0001) AIM_RAD: ABSCL1 =   /* abs. of clouds (vis.band)(constant term) */
(PID.TID 0000.0001)                 0.000000000000000E+00
(PID.TID 0000.0001)     ;
(PID.TID 0000.0001) AIM_RAD: ABSCL2 =   /* abs. of clouds (vis.band) (/dw, 1g/kg) */
(PID.TID 0000.0001)                 1.000000000000000E-02
(PID.TID 0000.0001)     ;
(PID.TID 0000.0001) AIM_RAD: ABLWIN =   /* abs. of air in "window" band */
(PID.TID 0000.0001)                 7.000000000000000E-01
(PID.TID 0000.0001)     ;
(PID.TID 0000.0001) AIM_RAD: ABLCO2 =   /* abs. of air in CO2 band */
(PID.TID 0000.0001)                 4.000000000000000E+00
(PID.TID 0000.0001)     ;
(PID.TID 0000.0001) AIM_RAD: ABLWV1 =   /* abs. of Water vap. H2O bd-1(weak)(/dq,1g/kg)*/
(PID.TID 0000.0001)                 7.000000000000000E-01
(PID.TID 0000.0001)     ;
(PID.TID 0000.0001) AIM_RAD: ABLWV2 =   /* abs. of W. vap., H2O bd-2(strong)(/dq,1g/kg)*/
(PID.TID 0000.0001)                 5.000000000000000E+01
(PID.TID 0000.0001)     ;
(PID.TID 0000.0001) AIM_RAD: ABLCL1 =   /* abs. of clouds in window band (const term) */
(PID.TID 0000.0001)                 1.200000000000000E+01
(PID.TID 0000.0001)     ;
(PID.TID 0000.0001) AIM_RAD: ABLCL2 =   /* abs. of clouds in window band (/dw, 1g/kg) */
(PID.TID 0000.0001)                 0.000000000000000E+00
(PID.TID 0000.0001)     ;
(PID.TID 0000.0001) AIM_VDI:  TRSHC =   /* relaxation time [h] for shallow convection */
(PID.TID 0000.0001)                 2.400000000000000E+01
(PID.TID 0000.0001)     ;
(PID.TID 0000.0001) AIM_VDI:  TRVDI =   /* relaxation time [h] for moisture diffusion */
(PID.TID 0000.0001)                 4.000000000000000E+01
(PID.TID 0000.0001)     ;
(PID.TID 0000.0001) AIM_VDI:  TRVDS =   /* relaxation time [h] for super-adiab. cond. */
(PID.TID 0000.0001)                 5.000000000000000E+00
(PID.TID 0000.0001)     ;
(PID.TID 0000.0001) AIM_VDI: RHGRAD =   /* max gradient of rel.humidity (d_RH/d_sigma)*/
(PID.TID 0000.0001)                 5.000000000000000E-01
(PID.TID 0000.0001)     ;
(PID.TID 0000.0001) AIM_VDI: SEGRAD =   /* max grad. of dry static Energy(d_DSE/d_phi)*/
(PID.TID 0000.0001)                 1.000000000000000E-01
(PID.TID 0000.0001)     ;
(PID.TID 0000.0001)  MDS_READ_FIELD: opening global file: landFrc.cpl_FM.bin
(PID.TID 0000.0001) INI_GLOBAL_DOMAIN: Found  24 CS-corner Pts in the domain
(PID.TID 0000.0001) %MON fCori_max                    =   1.4574827780704E-04
(PID.TID 0000.0001) %MON fCori_min                    =  -1.4574827780704E-04
(PID.TID 0000.0001) %MON fCori_mean                   =   0.0000000000000E+00
(PID.TID 0000.0001) %MON fCori_sd                     =   8.4202189509968E-05
(PID.TID 0000.0001) %MON fCoriG_max                   =   1.4584247033981E-04
(PID.TID 0000.0001) %MON fCoriG_min                   =  -1.4584247033981E-04
(PID.TID 0000.0001) %MON fCoriG_mean                  =   2.2587545260115E-21
(PID.TID 0000.0001) %MON fCoriG_sd                    =   8.4202189509968E-05
(PID.TID 0000.0001) %MON fCoriCos_max                 =   1.4580166994612E-04
(PID.TID 0000.0001) %MON fCoriCos_min                 =   5.2407700865903E-06
(PID.TID 0000.0001) %MON fCoriCos_mean                =   1.1514045869113E-04
(PID.TID 0000.0001) %MON fCoriCos_sd                  =   3.0375849106513E-05
(PID.TID 0000.0001) INI_CG2D: CG2D normalisation factor =  9.9119603843467461E-06
(PID.TID 0000.0001) INI_CG2D: cg2dTolerance = 1.123144856357769E-10 (Area=5.0990436378E+14)
(PID.TID 0000.0001) 
(PID.TID 0000.0001) // =======================================================
(PID.TID 0000.0001) // Model configuration
(PID.TID 0000.0001) // =======================================================
(PID.TID 0000.0001) //
(PID.TID 0000.0001) // "Physical" paramters ( PARM01 in namelist )
(PID.TID 0000.0001) //
(PID.TID 0000.0001) buoyancyRelation = /* Type of relation to get Buoyancy */
(PID.TID 0000.0001)               'ATMOSPHERIC'
(PID.TID 0000.0001)     ;
(PID.TID 0000.0001) fluidIsAir   =  /* fluid major constituent is Air */
(PID.TID 0000.0001)                   T
(PID.TID 0000.0001)     ;
(PID.TID 0000.0001) fluidIsWater =  /* fluid major constituent is Water */
(PID.TID 0000.0001)                   F
(PID.TID 0000.0001)     ;
(PID.TID 0000.0001) usingPCoords =  /* use p (or p*) vertical coordinate */
(PID.TID 0000.0001)                   T
(PID.TID 0000.0001)     ;
(PID.TID 0000.0001) usingZCoords =  /* use z (or z*) vertical coordinate */
(PID.TID 0000.0001)                   F
(PID.TID 0000.0001)     ;
(PID.TID 0000.0001) tRef =   /* Reference temperature profile ( oC or K ) */
(PID.TID 0000.0001)                 2.896000000000000E+02,      /* K =  1 */
(PID.TID 0000.0001)                 2.981000000000000E+02,      /* K =  2 */
(PID.TID 0000.0001)                 3.145000000000000E+02,      /* K =  3 */
(PID.TID 0000.0001)                 3.358000000000000E+02,      /* K =  4 */
(PID.TID 0000.0001)                 4.374000000000000E+02       /* K =  5 */
(PID.TID 0000.0001)     ;
(PID.TID 0000.0001) sRef =   /* Reference salinity profile ( psu ) */
(PID.TID 0000.0001)     5 @  0.000000000000000E+00              /* K =  1:  5 */
(PID.TID 0000.0001)     ;
(PID.TID 0000.0001) useStrainTensionVisc= /* Use StrainTension Form of Viscous Operator */
(PID.TID 0000.0001)                   F
(PID.TID 0000.0001)     ;
(PID.TID 0000.0001) useVariableVisc = /* Use variable horizontal viscosity */
(PID.TID 0000.0001)                   F
(PID.TID 0000.0001)     ;
(PID.TID 0000.0001) useHarmonicVisc = /* Use harmonic horizontal viscosity */
(PID.TID 0000.0001)                   F
(PID.TID 0000.0001)     ;
(PID.TID 0000.0001) useBiharmonicVisc= /* Use biharmonic horiz.  viscosity */
(PID.TID 0000.0001)                   F
(PID.TID 0000.0001)     ;
(PID.TID 0000.0001) useSmag3D = /* Use isotropic 3-D Smagorinsky viscosity */
(PID.TID 0000.0001)                   F
(PID.TID 0000.0001)     ;
(PID.TID 0000.0001) viscAh  =   /* Lateral harmonic viscosity ( m^2/s ) */
(PID.TID 0000.0001)                 0.000000000000000E+00
(PID.TID 0000.0001)     ;
(PID.TID 0000.0001) viscA4  =   /* Lateral biharmonic viscosity ( m^4/s ) */
(PID.TID 0000.0001)                 0.000000000000000E+00
(PID.TID 0000.0001)     ;
(PID.TID 0000.0001) no_slip_sides =  /* Viscous BCs: No-slip sides */
(PID.TID 0000.0001)                   F
(PID.TID 0000.0001)     ;
(PID.TID 0000.0001) sideDragFactor = /* side-drag scaling factor (non-dim) */
(PID.TID 0000.0001)                 2.000000000000000E+00
(PID.TID 0000.0001)     ;
(PID.TID 0000.0001) viscArNr = /* vertical profile of vertical viscosity (Pa^2/s )*/
(PID.TID 0000.0001)     5 @  0.000000000000000E+00              /* K =  1:  5 */
(PID.TID 0000.0001)     ;
(PID.TID 0000.0001) no_slip_bottom =  /* Viscous BCs: No-slip bottom */
(PID.TID 0000.0001)                   F
(PID.TID 0000.0001)     ;
(PID.TID 0000.0001) bottomVisc_pCell = /* Partial-cell in bottom Visc. BC */
(PID.TID 0000.0001)                   F
(PID.TID 0000.0001)     ;
(PID.TID 0000.0001) bottomDragLinear = /* linear bottom-drag coefficient ( m/s ) */
(PID.TID 0000.0001)                 0.000000000000000E+00
(PID.TID 0000.0001)     ;
(PID.TID 0000.0001) bottomDragQuadratic = /* quadratic bottom-drag coefficient (-) */
(PID.TID 0000.0001)                 0.000000000000000E+00
(PID.TID 0000.0001)     ;
(PID.TID 0000.0001) selectBotDragQuadr = /* select quadratic bottom drag options */
(PID.TID 0000.0001)                      -1
(PID.TID 0000.0001)     ;
(PID.TID 0000.0001) diffKhT =   /* Laplacian diffusion of heat laterally ( m^2/s ) */
(PID.TID 0000.0001)                 0.000000000000000E+00
(PID.TID 0000.0001)     ;
(PID.TID 0000.0001) diffK4T =   /* Biharmonic diffusion of heat laterally ( m^4/s ) */
(PID.TID 0000.0001)                 0.000000000000000E+00
(PID.TID 0000.0001)     ;
(PID.TID 0000.0001) diffKhS =   /* Laplacian diffusion of salt laterally ( m^2/s ) */
(PID.TID 0000.0001)                 0.000000000000000E+00
(PID.TID 0000.0001)     ;
(PID.TID 0000.0001) diffK4S =   /* Biharmonic diffusion of salt laterally ( m^4/s ) */
(PID.TID 0000.0001)                 0.000000000000000E+00
(PID.TID 0000.0001)     ;
(PID.TID 0000.0001) diffKrNrT = /* vertical profile of vertical diffusion of Temp (Pa^2/s )*/
(PID.TID 0000.0001)     5 @  0.000000000000000E+00              /* K =  1:  5 */
(PID.TID 0000.0001)     ;
(PID.TID 0000.0001) diffKrNrS = /* vertical profile of vertical diffusion of Salt (Pa^2/s )*/
(PID.TID 0000.0001)     5 @  0.000000000000000E+00              /* K =  1:  5 */
(PID.TID 0000.0001)     ;
(PID.TID 0000.0001) diffKrBL79surf = /* Surface diffusion for Bryan and Lewis 79 ( m^2/s ) */
(PID.TID 0000.0001)                 0.000000000000000E+00
(PID.TID 0000.0001)     ;
(PID.TID 0000.0001) diffKrBL79deep = /* Deep diffusion for Bryan and Lewis 1979 ( m^2/s ) */
(PID.TID 0000.0001)                 0.000000000000000E+00
(PID.TID 0000.0001)     ;
(PID.TID 0000.0001) diffKrBL79scl = /* Depth scale for Bryan and Lewis 1979 ( m ) */
(PID.TID 0000.0001)                 2.000000000000000E+02
(PID.TID 0000.0001)     ;
(PID.TID 0000.0001) diffKrBL79Ho = /* Turning depth for Bryan and Lewis 1979 ( m ) */
(PID.TID 0000.0001)                -2.000000000000000E+03
(PID.TID 0000.0001)     ;
(PID.TID 0000.0001) ivdc_kappa = /* Implicit Vertical Diffusivity for Convection (Pa^2/s) */
(PID.TID 0000.0001)                 0.000000000000000E+00
(PID.TID 0000.0001)     ;
(PID.TID 0000.0001) hMixCriteria=  /* Criteria for mixed-layer diagnostic */
(PID.TID 0000.0001)                -8.000000000000000E-01
(PID.TID 0000.0001)     ;
(PID.TID 0000.0001) dRhoSmall =  /* Parameter for mixed-layer diagnostic */
(PID.TID 0000.0001)                 1.000000000000000E-06
(PID.TID 0000.0001)     ;
(PID.TID 0000.0001) hMixSmooth=  /* Smoothing parameter for mixed-layer diagnostic */
(PID.TID 0000.0001)                 0.000000000000000E+00
(PID.TID 0000.0001)     ;
(PID.TID 0000.0001) eosType =  /* Type of Equation of State */
(PID.TID 0000.0001)               'IDEALG'
(PID.TID 0000.0001)     ;
(PID.TID 0000.0001) celsius2K = /* 0 degree Celsius converted to Kelvin ( K ) */
(PID.TID 0000.0001)                 2.731500000000000E+02
(PID.TID 0000.0001)     ;
(PID.TID 0000.0001) atm_Rd =    /* gas constant for dry air ( J/kg/K ) */
(PID.TID 0000.0001)                 2.868571428571428E+02
(PID.TID 0000.0001)     ;
(PID.TID 0000.0001) atm_Cp =    /* specific heat (Cp) of dry air ( J/kg/K ) */
(PID.TID 0000.0001)                 1.004000000000000E+03
(PID.TID 0000.0001)     ;
(PID.TID 0000.0001) atm_kappa = /* kappa (=Rd/Cp ) of dry air */
(PID.TID 0000.0001)                 2.857142857142857E-01
(PID.TID 0000.0001)     ;
(PID.TID 0000.0001) atm_Rq =  /* water vap. specific vol. anomaly relative to dry air */
(PID.TID 0000.0001)                 6.078000000000000E-04
(PID.TID 0000.0001)     ;
(PID.TID 0000.0001) atm_Po =    /* standard reference pressure ( Pa ) */
(PID.TID 0000.0001)                 1.000000000000000E+05
(PID.TID 0000.0001)     ;
(PID.TID 0000.0001) thetaConst= /* constant reference for potential temperature ( K ) */
(PID.TID 0000.0001)                 2.896000000000000E+02
(PID.TID 0000.0001)     ;
(PID.TID 0000.0001) integr_GeoPot =  /* select how the geopotential is integrated */
(PID.TID 0000.0001)                       2
(PID.TID 0000.0001)     ;
(PID.TID 0000.0001) selectFindRoSurf=  /* select how Surf.Ref. pressure is defined */
(PID.TID 0000.0001)                       1
(PID.TID 0000.0001)     ;
(PID.TID 0000.0001) rhoConst  = /* Reference density (Boussinesq)  ( kg/m^3 ) */
(PID.TID 0000.0001)                 9.998000000000000E+02
(PID.TID 0000.0001)     ;
(PID.TID 0000.0001) rhoFacC = /* normalized Reference density @ cell-Center (-) */
(PID.TID 0000.0001)     5 @  1.000000000000000E+00              /* K =  1:  5 */
(PID.TID 0000.0001)     ;
(PID.TID 0000.0001) rhoFacF = /* normalized Reference density @ W-Interface (-) */
(PID.TID 0000.0001)     6 @  1.000000000000000E+00              /* K =  1:  6 */
(PID.TID 0000.0001)     ;
(PID.TID 0000.0001) rhoConstFresh = /* Fresh-water reference density ( kg/m^3 ) */
(PID.TID 0000.0001)                 1.000000000000000E+03
(PID.TID 0000.0001)     ;
(PID.TID 0000.0001) gravity =   /* Gravitational acceleration ( m/s^2 ) */
(PID.TID 0000.0001)                 9.810000000000000E+00
(PID.TID 0000.0001)     ;
(PID.TID 0000.0001) gBaro =   /* Barotropic gravity ( m/s^2 ) */
(PID.TID 0000.0001)                 9.810000000000000E+00
(PID.TID 0000.0001)     ;
(PID.TID 0000.0001) gravFacC = /* gravity factor (vs surf.) @ cell-Center (-) */
(PID.TID 0000.0001)     5 @  1.000000000000000E+00              /* K =  1:  5 */
(PID.TID 0000.0001)     ;
(PID.TID 0000.0001) gravFacF = /* gravity factor (vs surf.) @ W-Interface (-) */
(PID.TID 0000.0001)     6 @  1.000000000000000E+00              /* K =  1:  6 */
(PID.TID 0000.0001)     ;
(PID.TID 0000.0001) rotationPeriod =   /* Rotation Period ( s ) */
(PID.TID 0000.0001)                 8.616400000000000E+04
(PID.TID 0000.0001)     ;
(PID.TID 0000.0001) omega =   /* Angular velocity ( rad/s ) */
(PID.TID 0000.0001)                 7.292123516990375E-05
(PID.TID 0000.0001)     ;
(PID.TID 0000.0001) f0 =   /* Reference coriolis parameter ( 1/s ) */
(PID.TID 0000.0001)                 1.000000000000000E-04
(PID.TID 0000.0001)     ;
(PID.TID 0000.0001) beta =   /* Beta ( 1/(m.s) ) */
(PID.TID 0000.0001)                 9.999999999999999E-12
(PID.TID 0000.0001)     ;
(PID.TID 0000.0001) fPrime =   /* Second coriolis parameter ( 1/s ) */
(PID.TID 0000.0001)                 0.000000000000000E+00
(PID.TID 0000.0001)     ;
(PID.TID 0000.0001) rigidLid =   /* Rigid lid on/off flag */
(PID.TID 0000.0001)                   F
(PID.TID 0000.0001)     ;
(PID.TID 0000.0001) implicitFreeSurface =   /* Implicit free surface on/off flag */
(PID.TID 0000.0001)                   T
(PID.TID 0000.0001)     ;
(PID.TID 0000.0001) freeSurfFac =   /* Implicit free surface factor */
(PID.TID 0000.0001)                 1.000000000000000E+00
(PID.TID 0000.0001)     ;
(PID.TID 0000.0001) implicSurfPress =  /* Surface Pressure implicit factor (0-1)*/
(PID.TID 0000.0001)                 1.000000000000000E+00
(PID.TID 0000.0001)     ;
(PID.TID 0000.0001) implicDiv2Dflow =  /* Barot. Flow Div. implicit factor (0-1)*/
(PID.TID 0000.0001)                 1.000000000000000E+00
(PID.TID 0000.0001)     ;
(PID.TID 0000.0001) uniformLin_PhiSurf = /* use uniform Bo_surf on/off flag*/
(PID.TID 0000.0001)                   F
(PID.TID 0000.0001)     ;
(PID.TID 0000.0001) uniformFreeSurfLev = /* free-surface level-index is uniform */
(PID.TID 0000.0001)                   F
(PID.TID 0000.0001)     ;
(PID.TID 0000.0001) hFacMin =   /* minimum partial cell factor (hFac) */
(PID.TID 0000.0001)                 2.000000000000000E-01
(PID.TID 0000.0001)     ;
(PID.TID 0000.0001) hFacMinDr = /* minimum partial cell thickness (Pa) */
(PID.TID 0000.0001)                 0.000000000000000E+00
(PID.TID 0000.0001)     ;
(PID.TID 0000.0001) exactConserv =  /* Exact Volume Conservation on/off flag*/
(PID.TID 0000.0001)                   T
(PID.TID 0000.0001)     ;
(PID.TID 0000.0001) linFSConserveTr = /* Tracer correction for Lin Free Surface on/off flag*/
(PID.TID 0000.0001)                   F
(PID.TID 0000.0001)     ;
(PID.TID 0000.0001) nonlinFreeSurf = /* Non-linear Free Surf. options (-1,0,1,2,3)*/
(PID.TID 0000.0001)                       4
(PID.TID 0000.0001)      -1,0= Off ; 1,2,3= On, 2=+rescale gU,gV, 3=+update cg2d solv.
(PID.TID 0000.0001)     ;
(PID.TID 0000.0001) hFacInf =   /* lower threshold for hFac (nonlinFreeSurf only)*/
(PID.TID 0000.0001)                 2.000000000000000E-01
(PID.TID 0000.0001)     ;
(PID.TID 0000.0001) hFacSup =   /* upper threshold for hFac (nonlinFreeSurf only)*/
(PID.TID 0000.0001)                 2.000000000000000E+00
(PID.TID 0000.0001)     ;
(PID.TID 0000.0001) select_rStar = /* r* Vertical coord. options (=0 r coord.; >0 uses r*)*/
(PID.TID 0000.0001)                       2
(PID.TID 0000.0001)     ;
(PID.TID 0000.0001) useRealFreshWaterFlux = /* Real Fresh Water Flux on/off flag*/
(PID.TID 0000.0001)                   F
(PID.TID 0000.0001)     ;
(PID.TID 0000.0001) temp_EvPrRn = /* Temp. of Evap/Prec/R (UNSET=use local T)(oC)*/
(PID.TID 0000.0001)                 1.234567000000000E+05
(PID.TID 0000.0001)     ;
(PID.TID 0000.0001) salt_EvPrRn = /* Salin. of Evap/Prec/R (UNSET=use local S)(psu)*/
(PID.TID 0000.0001)                 0.000000000000000E+00
(PID.TID 0000.0001)     ;
(PID.TID 0000.0001) selectAddFluid = /* option for mass source/sink of fluid (=0: off) */
(PID.TID 0000.0001)                       0
(PID.TID 0000.0001)     ;
(PID.TID 0000.0001) temp_addMass = /* Temp. of addMass array (UNSET=use local T)(oC)*/
(PID.TID 0000.0001)                 1.234567000000000E+05
(PID.TID 0000.0001)     ;
(PID.TID 0000.0001) salt_addMass = /* Salin. of addMass array (UNSET=use local S)(psu)*/
(PID.TID 0000.0001)                 0.000000000000000E+00
(PID.TID 0000.0001)     ;
(PID.TID 0000.0001) convertFW2Salt = /* convert F.W. Flux to Salt Flux (-1=use local S)(psu)*/
(PID.TID 0000.0001)                 3.500000000000000E+01
(PID.TID 0000.0001)     ;
(PID.TID 0000.0001) use3Dsolver = /* use 3-D pressure solver on/off flag */
(PID.TID 0000.0001)                   F
(PID.TID 0000.0001)     ;
(PID.TID 0000.0001) nonHydrostatic =  /* Non-Hydrostatic on/off flag */
(PID.TID 0000.0001)                   F
(PID.TID 0000.0001)     ;
(PID.TID 0000.0001) nh_Am2 = /* Non-Hydrostatic terms scaling factor */
(PID.TID 0000.0001)                 1.000000000000000E+00
(PID.TID 0000.0001)     ;
(PID.TID 0000.0001) implicitNHPress = /* Non-Hyd Pressure implicit factor (0-1)*/
(PID.TID 0000.0001)                 1.000000000000000E+00
(PID.TID 0000.0001)     ;
(PID.TID 0000.0001) selectNHfreeSurf = /* Non-Hyd (free-)Surface option */
(PID.TID 0000.0001)                       0
(PID.TID 0000.0001)     ;
(PID.TID 0000.0001) quasiHydrostatic = /* Quasi-Hydrostatic on/off flag */
(PID.TID 0000.0001)                   F
(PID.TID 0000.0001)     ;
(PID.TID 0000.0001) calc_wVelocity = /* vertical velocity calculation on/off flag */
(PID.TID 0000.0001)                   T
(PID.TID 0000.0001)     ;
(PID.TID 0000.0001) momStepping =  /* Momentum equation on/off flag */
(PID.TID 0000.0001)                   T
(PID.TID 0000.0001)     ;
(PID.TID 0000.0001) vectorInvariantMomentum= /* Vector-Invariant Momentum on/off */
(PID.TID 0000.0001)                   T
(PID.TID 0000.0001)     ;
(PID.TID 0000.0001) momAdvection =  /* Momentum advection on/off flag */
(PID.TID 0000.0001)                   T
(PID.TID 0000.0001)     ;
(PID.TID 0000.0001) momViscosity =  /* Momentum viscosity on/off flag */
(PID.TID 0000.0001)                   T
(PID.TID 0000.0001)     ;
(PID.TID 0000.0001) momImplVertAdv= /* Momentum implicit vert. advection on/off*/
(PID.TID 0000.0001)                   F
(PID.TID 0000.0001)     ;
(PID.TID 0000.0001) implicitViscosity = /* Implicit viscosity on/off flag */
(PID.TID 0000.0001)                   F
(PID.TID 0000.0001)     ;
(PID.TID 0000.0001) implBottomFriction= /* Implicit bottom friction on/off flag */
(PID.TID 0000.0001)                   F
(PID.TID 0000.0001)     ;
(PID.TID 0000.0001) metricTerms =  /* metric-Terms on/off flag */
(PID.TID 0000.0001)                   F
(PID.TID 0000.0001)     ;
(PID.TID 0000.0001) useNHMTerms = /* Non-Hydrostatic Metric-Terms on/off */
(PID.TID 0000.0001)                   F
(PID.TID 0000.0001)     ;
(PID.TID 0000.0001) selectCoriMap = /* Coriolis Map options (0,1,2,3)*/
(PID.TID 0000.0001)                       2
(PID.TID 0000.0001)     0= f-Plane ; 1= Beta-Plane ; 2= Spherical ; 3= read from file
(PID.TID 0000.0001)     ;
(PID.TID 0000.0001) use3dCoriolis = /* 3-D Coriolis on/off flag */
(PID.TID 0000.0001)                   F
(PID.TID 0000.0001)     ;
(PID.TID 0000.0001) useCoriolis =  /* Coriolis on/off flag */
(PID.TID 0000.0001)                   T
(PID.TID 0000.0001)     ;
(PID.TID 0000.0001) useCDscheme =  /* CD scheme on/off flag */
(PID.TID 0000.0001)                   F
(PID.TID 0000.0001)     ;
(PID.TID 0000.0001) useEnergyConservingCoriolis= /* Flx-Form Coriolis scheme flag */
(PID.TID 0000.0001)                   F
(PID.TID 0000.0001)     ;
(PID.TID 0000.0001) useJamartWetPoints= /* Coriolis WetPoints method flag */
(PID.TID 0000.0001)                   T
(PID.TID 0000.0001)     ;
(PID.TID 0000.0001) useJamartMomAdv= /* V.I Non-linear terms Jamart flag */
(PID.TID 0000.0001)                   F
(PID.TID 0000.0001)     ;
(PID.TID 0000.0001) useAbsVorticity= /* V.I Works with f+zeta in Coriolis */
(PID.TID 0000.0001)                   F
(PID.TID 0000.0001)     ;
(PID.TID 0000.0001) selectVortScheme= /* V.I Scheme selector for Vorticity-Term */
(PID.TID 0000.0001)                       1
(PID.TID 0000.0001)    = 0 : enstrophy (Shallow-Water Eq.) conserving scheme by Sadourny, JAS 75
(PID.TID 0000.0001)    = 1 : same as 0 with modified hFac
(PID.TID 0000.0001)    = 2 : energy conserving scheme (used by Sadourny in JAS 75 paper)
(PID.TID 0000.0001)    = 3 : energy (general) and enstrophy (2D, nonDiv.) conserving scheme
(PID.TID 0000.0001)          from Sadourny (Burridge & Haseler, ECMWF Rep.4, 1977)
(PID.TID 0000.0001)     ;
(PID.TID 0000.0001) upwindVorticity= /* V.I Upwind bias vorticity flag */
(PID.TID 0000.0001)                   F
(PID.TID 0000.0001)     ;
(PID.TID 0000.0001) highOrderVorticity= /* V.I High order vort. advect. flag */
(PID.TID 0000.0001)                   F
(PID.TID 0000.0001)     ;
(PID.TID 0000.0001) upwindShear= /* V.I Upwind vertical Shear advection flag */
(PID.TID 0000.0001)                   F
(PID.TID 0000.0001)     ;
(PID.TID 0000.0001) selectKEscheme= /* V.I Kinetic Energy scheme selector */
(PID.TID 0000.0001)                       0
(PID.TID 0000.0001)     ;
(PID.TID 0000.0001) momForcing =  /* Momentum forcing on/off flag */
(PID.TID 0000.0001)                   T
(PID.TID 0000.0001)     ;
(PID.TID 0000.0001) momPressureForcing =  /* Momentum pressure term on/off flag */
(PID.TID 0000.0001)                   T
(PID.TID 0000.0001)     ;
(PID.TID 0000.0001) implicitIntGravWave= /* Implicit Internal Gravity Wave flag */
(PID.TID 0000.0001)                   F
(PID.TID 0000.0001)     ;
(PID.TID 0000.0001) staggerTimeStep =    /* Stagger time stepping on/off flag */
(PID.TID 0000.0001)                   T
(PID.TID 0000.0001)     ;
(PID.TID 0000.0001) doResetHFactors = /* reset thickness factors @ each time-step */
(PID.TID 0000.0001)                   F
(PID.TID 0000.0001)     ;
(PID.TID 0000.0001) multiDimAdvection =  /* enable/disable Multi-Dim Advection */
(PID.TID 0000.0001)                   T
(PID.TID 0000.0001)     ;
(PID.TID 0000.0001) useMultiDimAdvec =   /* Multi-Dim Advection is/is-not used */
(PID.TID 0000.0001)                   F
(PID.TID 0000.0001)     ;
(PID.TID 0000.0001) implicitDiffusion = /* Implicit Diffusion on/off flag */
(PID.TID 0000.0001)                   F
(PID.TID 0000.0001)     ;
(PID.TID 0000.0001) tempStepping =  /* Temperature equation on/off flag */
(PID.TID 0000.0001)                   T
(PID.TID 0000.0001)     ;
(PID.TID 0000.0001) tempAdvection = /* Temperature advection on/off flag */
(PID.TID 0000.0001)                   T
(PID.TID 0000.0001)     ;
(PID.TID 0000.0001) tempImplVertAdv = /* Temp. implicit vert. advection on/off */
(PID.TID 0000.0001)                   F
(PID.TID 0000.0001)     ;
(PID.TID 0000.0001) tempForcing  =  /* Temperature forcing on/off flag */
(PID.TID 0000.0001)                   T
(PID.TID 0000.0001)     ;
(PID.TID 0000.0001) doThetaClimRelax = /* apply SST relaxation on/off flag */
(PID.TID 0000.0001)                   F
(PID.TID 0000.0001)     ;
(PID.TID 0000.0001) tempIsActiveTr = /* Temp. is a dynamically Active Tracer */
(PID.TID 0000.0001)                   T
(PID.TID 0000.0001)     ;
(PID.TID 0000.0001) saltStepping =  /* Salinity equation on/off flag */
(PID.TID 0000.0001)                   T
(PID.TID 0000.0001)     ;
(PID.TID 0000.0001) saltAdvection = /* Salinity advection on/off flag */
(PID.TID 0000.0001)                   T
(PID.TID 0000.0001)     ;
(PID.TID 0000.0001) saltImplVertAdv = /* Sali. implicit vert. advection on/off */
(PID.TID 0000.0001)                   F
(PID.TID 0000.0001)     ;
(PID.TID 0000.0001) saltForcing  =  /* Salinity forcing on/off flag */
(PID.TID 0000.0001)                   T
(PID.TID 0000.0001)     ;
(PID.TID 0000.0001) doSaltClimRelax = /* apply SSS relaxation on/off flag */
(PID.TID 0000.0001)                   F
(PID.TID 0000.0001)     ;
(PID.TID 0000.0001) saltIsActiveTr = /* Salt  is a dynamically Active Tracer */
(PID.TID 0000.0001)                   T
(PID.TID 0000.0001)     ;
(PID.TID 0000.0001)  readBinaryPrec = /* Precision used for reading binary files */
(PID.TID 0000.0001)                      64
(PID.TID 0000.0001)     ;
(PID.TID 0000.0001) writeBinaryPrec = /* Precision used for writing binary files */
(PID.TID 0000.0001)                      64
(PID.TID 0000.0001)     ;
(PID.TID 0000.0001)  globalFiles = /* write "global" (=not per tile) files */
(PID.TID 0000.0001)                   F
(PID.TID 0000.0001)     ;
(PID.TID 0000.0001)  useSingleCpuIO = /* only master MPI process does I/O */
(PID.TID 0000.0001)                   F
(PID.TID 0000.0001)     ;
(PID.TID 0000.0001)  useSingleCpuInput = /* only master process reads input */
(PID.TID 0000.0001)                   F
(PID.TID 0000.0001)     ;
(PID.TID 0000.0001) /* debLev[*]  : level of debug & auxiliary message printing */
(PID.TID 0000.0001) debLevZero =  0 ; /* level of disabled aux. msg printing */
(PID.TID 0000.0001)    debLevA =  1 ; /* level of minimum  aux. msg printing */
(PID.TID 0000.0001)    debLevB =  2 ; /* level of low aux. print (report read-file opening)*/
(PID.TID 0000.0001)    debLevC =  3 ; /* level of moderate debug prt (most pkgs debug msg) */
(PID.TID 0000.0001)    debLevD =  4 ; /* level of enhanced debug prt (add DEBUG_STATS prt) */
(PID.TID 0000.0001)    debLevE =  5 ; /* level of extensive debug printing */
(PID.TID 0000.0001) debugLevel =  /* select debug printing level */
(PID.TID 0000.0001)                       2
(PID.TID 0000.0001)     ;
(PID.TID 0000.0001) //
(PID.TID 0000.0001) // Elliptic solver(s) paramters ( PARM02 in namelist )
(PID.TID 0000.0001) //
(PID.TID 0000.0001) cg2dMaxIters =   /* Upper limit on 2d con. grad iterations  */
(PID.TID 0000.0001)                     200
(PID.TID 0000.0001)     ;
(PID.TID 0000.0001) cg2dChkResFreq =   /* 2d con. grad convergence test frequency */
(PID.TID 0000.0001)                       1
(PID.TID 0000.0001)     ;
(PID.TID 0000.0001) cg2dUseMinResSol= /* use cg2d last-iter(=0) / min-resid.(=1) solution */
(PID.TID 0000.0001)                       0
(PID.TID 0000.0001)     ;
(PID.TID 0000.0001) cg2dTargetResidual =   /* 2d con. grad target residual  */
(PID.TID 0000.0001)                 1.000000000000000E-07
(PID.TID 0000.0001)     ;
(PID.TID 0000.0001) cg2dTargetResWunit =   /* CG2d target residual [W units] */
(PID.TID 0000.0001)                 1.000000000000000E-17
(PID.TID 0000.0001)     ;
(PID.TID 0000.0001) cg2dPreCondFreq =   /* Freq. for updating cg2d preconditioner */
(PID.TID 0000.0001)                       1
(PID.TID 0000.0001)     ;
(PID.TID 0000.0001) useSRCGSolver =  /* use single reduction CG solver(s) */
(PID.TID 0000.0001)                   F
(PID.TID 0000.0001)     ;
(PID.TID 0000.0001) printResidualFreq = /* Freq. for printing CG residual */
(PID.TID 0000.0001)                       0
(PID.TID 0000.0001)     ;
(PID.TID 0000.0001) //
(PID.TID 0000.0001) // Time stepping paramters ( PARM03 in namelist )
(PID.TID 0000.0001) //
(PID.TID 0000.0001) deltaTMom =   /* Momentum equation timestep ( s ) */
(PID.TID 0000.0001)                 4.500000000000000E+02
(PID.TID 0000.0001)     ;
(PID.TID 0000.0001) deltaTFreeSurf = /* FreeSurface equation timestep ( s ) */
(PID.TID 0000.0001)                 4.500000000000000E+02
(PID.TID 0000.0001)     ;
(PID.TID 0000.0001) dTtracerLev =  /* Tracer equation timestep ( s ) */
(PID.TID 0000.0001)     5 @  4.500000000000000E+02              /* K =  1:  5 */
(PID.TID 0000.0001)     ;
(PID.TID 0000.0001) deltaTClock  =   /* Model clock timestep ( s ) */
(PID.TID 0000.0001)                 4.500000000000000E+02
(PID.TID 0000.0001)     ;
(PID.TID 0000.0001) cAdjFreq =   /* Convective adjustment interval ( s ) */
(PID.TID 0000.0001)                 0.000000000000000E+00
(PID.TID 0000.0001)     ;
(PID.TID 0000.0001) momForcingOutAB = /* =1: take Momentum Forcing out of Adams-Bash. stepping */
(PID.TID 0000.0001)                       1
(PID.TID 0000.0001)     ;
(PID.TID 0000.0001) tracForcingOutAB = /* =1: take T,S,pTr Forcing out of Adams-Bash. stepping */
(PID.TID 0000.0001)                       1
(PID.TID 0000.0001)     ;
(PID.TID 0000.0001) momDissip_In_AB = /* put Dissipation Tendency in Adams-Bash. stepping */
(PID.TID 0000.0001)                   T
(PID.TID 0000.0001)     ;
(PID.TID 0000.0001) doAB_onGtGs = /* apply AB on Tendencies (rather than on T,S)*/
(PID.TID 0000.0001)                   T
(PID.TID 0000.0001)     ;
(PID.TID 0000.0001) abEps =   /* Adams-Bashforth-2 stabilizing weight */
(PID.TID 0000.0001)                 1.000000000000000E-01
(PID.TID 0000.0001)     ;
(PID.TID 0000.0001) applyExchUV_early = /* Apply EXCH to U,V earlier in time-step */
(PID.TID 0000.0001)                   F
(PID.TID 0000.0001)     ;
(PID.TID 0000.0001) pickupStrictlyMatch= /* stop if pickup do not strictly match */
(PID.TID 0000.0001)                   T
(PID.TID 0000.0001)     ;
(PID.TID 0000.0001) nIter0   =   /* Run starting timestep number */
(PID.TID 0000.0001)                       0
(PID.TID 0000.0001)     ;
(PID.TID 0000.0001) nTimeSteps = /* Number of timesteps */
(PID.TID 0000.0001)                      40
(PID.TID 0000.0001)     ;
(PID.TID 0000.0001) nEndIter =   /* Run ending timestep number */
(PID.TID 0000.0001)                      40
(PID.TID 0000.0001)     ;
(PID.TID 0000.0001) baseTime =   /* Model base time ( s ) */
(PID.TID 0000.0001)                 0.000000000000000E+00
(PID.TID 0000.0001)     ;
(PID.TID 0000.0001) startTime =  /* Run start time ( s ) */
(PID.TID 0000.0001)                 0.000000000000000E+00
(PID.TID 0000.0001)     ;
(PID.TID 0000.0001) endTime  =   /* Integration ending time ( s ) */
(PID.TID 0000.0001)                 1.800000000000000E+04
(PID.TID 0000.0001)     ;
(PID.TID 0000.0001) pChkPtFreq = /* Permanent restart/pickup file interval ( s ) */
(PID.TID 0000.0001)                 2.592000000000000E+06
(PID.TID 0000.0001)     ;
(PID.TID 0000.0001) chkPtFreq  = /* Rolling restart/pickup file interval ( s ) */
(PID.TID 0000.0001)                 0.000000000000000E+00
(PID.TID 0000.0001)     ;
(PID.TID 0000.0001) pickup_write_mdsio =   /* Model IO flag. */
(PID.TID 0000.0001)                   T
(PID.TID 0000.0001)     ;
(PID.TID 0000.0001) pickup_read_mdsio =   /* Model IO flag. */
(PID.TID 0000.0001)                   T
(PID.TID 0000.0001)     ;
(PID.TID 0000.0001) pickup_write_mnc =   /* Model IO flag. */
(PID.TID 0000.0001)                   F
(PID.TID 0000.0001)     ;
(PID.TID 0000.0001) pickup_read_mnc =   /* Model IO flag. */
(PID.TID 0000.0001)                   F
(PID.TID 0000.0001)     ;
(PID.TID 0000.0001) pickup_write_immed =   /* Model IO flag. */
(PID.TID 0000.0001)                   F
(PID.TID 0000.0001)     ;
(PID.TID 0000.0001) writePickupAtEnd =   /* Model IO flag. */
(PID.TID 0000.0001)                   T
(PID.TID 0000.0001)     ;
(PID.TID 0000.0001) dumpFreq =   /* Model state write out interval ( s ). */
(PID.TID 0000.0001)                 2.592000000000000E+06
(PID.TID 0000.0001)     ;
(PID.TID 0000.0001) dumpInitAndLast= /* write out Initial & Last iter. model state */
(PID.TID 0000.0001)                   T
(PID.TID 0000.0001)     ;
(PID.TID 0000.0001) snapshot_mdsio =   /* Model IO flag. */
(PID.TID 0000.0001)                   T
(PID.TID 0000.0001)     ;
(PID.TID 0000.0001) snapshot_mnc =   /* Model IO flag. */
(PID.TID 0000.0001)                   F
(PID.TID 0000.0001)     ;
(PID.TID 0000.0001) monitorFreq =   /* Monitor output interval ( s ). */
(PID.TID 0000.0001)                 1.000000000000000E+00
(PID.TID 0000.0001)     ;
(PID.TID 0000.0001) monitorSelect = /* select group of variables to monitor */
(PID.TID 0000.0001)                       2
(PID.TID 0000.0001)     ;
(PID.TID 0000.0001) monitor_stdio =   /* Model IO flag. */
(PID.TID 0000.0001)                   T
(PID.TID 0000.0001)     ;
(PID.TID 0000.0001) monitor_mnc =   /* Model IO flag. */
(PID.TID 0000.0001)                   F
(PID.TID 0000.0001)     ;
(PID.TID 0000.0001) externForcingPeriod =   /* forcing period (s) */
(PID.TID 0000.0001)                 0.000000000000000E+00
(PID.TID 0000.0001)     ;
(PID.TID 0000.0001) externForcingCycle =   /* period of the cyle (s). */
(PID.TID 0000.0001)                 0.000000000000000E+00
(PID.TID 0000.0001)     ;
(PID.TID 0000.0001) tauThetaClimRelax =   /* relaxation time scale (s) */
(PID.TID 0000.0001)                 0.000000000000000E+00
(PID.TID 0000.0001)     ;
(PID.TID 0000.0001) tauSaltClimRelax =   /* relaxation time scale (s) */
(PID.TID 0000.0001)                 0.000000000000000E+00
(PID.TID 0000.0001)     ;
(PID.TID 0000.0001) latBandClimRelax =   /* max. Lat. where relaxation */
(PID.TID 0000.0001)                 1.800000000000000E+02
(PID.TID 0000.0001)     ;
(PID.TID 0000.0001) //
(PID.TID 0000.0001) // Gridding paramters ( PARM04 in namelist )
(PID.TID 0000.0001) //
(PID.TID 0000.0001) usingCartesianGrid = /* Cartesian coordinates flag ( True/False ) */
(PID.TID 0000.0001)                   F
(PID.TID 0000.0001)     ;
(PID.TID 0000.0001) usingCylindricalGrid = /* Cylindrical coordinates flag ( True/False ) */
(PID.TID 0000.0001)                   F
(PID.TID 0000.0001)     ;
(PID.TID 0000.0001) usingSphericalPolarGrid = /* Spherical coordinates flag ( True/False ) */
(PID.TID 0000.0001)                   F
(PID.TID 0000.0001)     ;
(PID.TID 0000.0001) usingCurvilinearGrid = /* Curvilinear coordinates flag ( True/False ) */
(PID.TID 0000.0001)                   T
(PID.TID 0000.0001)     ;
(PID.TID 0000.0001) selectSigmaCoord = /* Hybrid-Sigma Vert. Coordinate option */
(PID.TID 0000.0001)                       0
(PID.TID 0000.0001)     ;
(PID.TID 0000.0001) rSigmaBnd = /* r/sigma transition ( units of r == Pa ) */
(PID.TID 0000.0001)                 1.234567000000000E+05
(PID.TID 0000.0001)     ;
(PID.TID 0000.0001) rkSign =   /* index orientation relative to vertical coordinate */
(PID.TID 0000.0001)                -1.000000000000000E+00
(PID.TID 0000.0001)     ;
(PID.TID 0000.0001) gravitySign = /* gravity orientation relative to vertical coordinate */
(PID.TID 0000.0001)                 1.000000000000000E+00
(PID.TID 0000.0001)     ;
(PID.TID 0000.0001) seaLev_Z =  /* reference height of sea-level [m] */
(PID.TID 0000.0001)                 0.000000000000000E+00
(PID.TID 0000.0001)     ;
(PID.TID 0000.0001) top_Pres =  /* pressure at the top (r-axis origin) [Pa] */
(PID.TID 0000.0001)                 0.000000000000000E+00
(PID.TID 0000.0001)     ;
(PID.TID 0000.0001) mass2rUnit = /* convert mass per unit area [kg/m2] to r-units [Pa] */
(PID.TID 0000.0001)                 9.810000000000000E+00
(PID.TID 0000.0001)     ;
(PID.TID 0000.0001) rUnit2mass = /* convert r-units [Pa] to mass per unit area [kg/m2] */
(PID.TID 0000.0001)                 1.019367991845056E-01
(PID.TID 0000.0001)     ;
(PID.TID 0000.0001) drC =   /* C spacing ( units of r ) */
(PID.TID 0000.0001)                 5.000000000000000E+03,      /* K =  1 */
(PID.TID 0000.0001)                 1.750000000000000E+04,      /* K =  2 */
(PID.TID 0000.0001)                 2.750000000000000E+04,      /* K =  3 */
(PID.TID 0000.0001)                 2.500000000000000E+04,      /* K =  4 */
(PID.TID 0000.0001)                 1.750000000000000E+04,      /* K =  5 */
(PID.TID 0000.0001)                 7.500000000000000E+03       /* K =  6 */
(PID.TID 0000.0001)     ;
(PID.TID 0000.0001) drF =   /* W spacing ( units of r ) */
(PID.TID 0000.0001)                 1.000000000000000E+04,      /* K =  1 */
(PID.TID 0000.0001)                 2.500000000000000E+04,      /* K =  2 */
(PID.TID 0000.0001)                 3.000000000000000E+04,      /* K =  3 */
(PID.TID 0000.0001)                 2.000000000000000E+04,      /* K =  4 */
(PID.TID 0000.0001)                 1.500000000000000E+04       /* K =  5 */
(PID.TID 0000.0001)     ;
(PID.TID 0000.0001) radius_fromHorizGrid = /* sphere Radius of input horiz. grid */
(PID.TID 0000.0001)                 6.370000000000000E+06
(PID.TID 0000.0001)     ;
(PID.TID 0000.0001) rSphere =  /* Radius ( ignored - cartesian, m - spherical ) */
(PID.TID 0000.0001)                 6.370000000000000E+06
(PID.TID 0000.0001)     ;
(PID.TID 0000.0001) deepAtmosphere = /* Deep/Shallow Atmosphere flag (True/False) */
(PID.TID 0000.0001)                   F
(PID.TID 0000.0001)     ;
(PID.TID 0000.0001) xC =  /* xC(:,1,:,1) : P-point X coord ( deg. or m if cartesian) */
(PID.TID 0000.0001)                -4.439521994760536E+01,      /* I =  1 */
(PID.TID 0000.0001)                -4.295641272275883E+01,      /* I =  2 */
(PID.TID 0000.0001)                -4.122055553388957E+01,      /* I =  3 */
(PID.TID 0000.0001)      . . .
(PID.TID 0000.0001)                 8.070819219728060E+01,      /* I = 46 */
(PID.TID 0000.0001)                 8.439652466417766E+01,      /* I = 47 */
(PID.TID 0000.0001)                 8.812739148696656E+01,      /* I = 48 */
(PID.TID 0000.0001)                 9.187260851303344E+01,      /* I = 49 */
(PID.TID 0000.0001)                 9.560347533582234E+01,      /* I = 50 */
(PID.TID 0000.0001)                 9.929180780271940E+01,      /* I = 51 */
(PID.TID 0000.0001)      . . .
(PID.TID 0000.0001)                 1.321863035748696E+02,      /* I = 94 */
(PID.TID 0000.0001)                 1.337919453120370E+02,      /* I = 95 */
(PID.TID 0000.0001)                 1.350000000000000E+02,      /* I = 96 */
(PID.TID 0000.0001)                 1.356047800523947E+02,      /* I = 97 */
(PID.TID 0000.0001)                 1.358367907661329E+02,      /* I = 98 */
(PID.TID 0000.0001)                 1.359720382181193E+02,      /* I = 99 */
(PID.TID 0000.0001)      . . .
(PID.TID 0000.0001)                -1.336511021209287E+02,      /* I =142 */
(PID.TID 0000.0001)                -1.336469399409420E+02,      /* I =143 */
(PID.TID 0000.0001)                -1.336449032499283E+02,      /* I =144 */
(PID.TID 0000.0001)                -1.336449032499283E+02,      /* I =145 */
(PID.TID 0000.0001)                -1.336469399409420E+02,      /* I =146 */
(PID.TID 0000.0001)                -1.336511021209287E+02,      /* I =147 */
(PID.TID 0000.0001)      . . .
(PID.TID 0000.0001)                 1.378136964251304E+02,      /* I =190 */
(PID.TID 0000.0001)                 1.362080546879630E+02,      /* I =191 */
(PID.TID 0000.0001)                 1.350000000000000E+02       /* I =192 */
(PID.TID 0000.0001)     ;
(PID.TID 0000.0001) yC =  /* yC(1,:,1,:) : P-point Y coord ( deg. or m if cartesian) */
(PID.TID 0000.0001)                -3.497677942598243E+01,      /* J =  1 */
(PID.TID 0000.0001)                -3.374005967394886E+01,      /* J =  2 */
(PID.TID 0000.0001)                -3.220655175667454E+01,      /* J =  3 */
(PID.TID 0000.0001)                -3.045756348838641E+01,      /* J =  4 */
(PID.TID 0000.0001)                -2.853728129852918E+01,      /* J =  5 */
(PID.TID 0000.0001)                -2.647426640173173E+01,      /* J =  6 */
(PID.TID 0000.0001)                -2.428936657094636E+01,      /* J =  7 */
(PID.TID 0000.0001)                -2.199915808312262E+01,      /* J =  8 */
(PID.TID 0000.0001)                -1.961768597440146E+01,      /* J =  9 */
(PID.TID 0000.0001)                -1.715743888281371E+01,      /* J = 10 */
(PID.TID 0000.0001)                -1.462993396899330E+01,      /* J = 11 */
(PID.TID 0000.0001)                -1.204608340464756E+01,      /* J = 12 */
(PID.TID 0000.0001)                -9.416429130284818E+00,      /* J = 13 */
(PID.TID 0000.0001)                -6.751293662992216E+00,      /* J = 14 */
(PID.TID 0000.0001)                -4.060875511835959E+00,      /* J = 15 */
(PID.TID 0000.0001)                -1.355307764409121E+00,      /* J = 16 */
(PID.TID 0000.0001)                 1.355307764409121E+00,      /* J = 17 */
(PID.TID 0000.0001)                 4.060875511835959E+00,      /* J = 18 */
(PID.TID 0000.0001)                 6.751293662992216E+00,      /* J = 19 */
(PID.TID 0000.0001)                 9.416429130284818E+00,      /* J = 20 */
(PID.TID 0000.0001)                 1.204608340464756E+01,      /* J = 21 */
(PID.TID 0000.0001)                 1.462993396899330E+01,      /* J = 22 */
(PID.TID 0000.0001)                 1.715743888281371E+01,      /* J = 23 */
(PID.TID 0000.0001)                 1.961768597440146E+01,      /* J = 24 */
(PID.TID 0000.0001)                 2.199915808312262E+01,      /* J = 25 */
(PID.TID 0000.0001)                 2.428936657094636E+01,      /* J = 26 */
(PID.TID 0000.0001)                 2.647426640173173E+01,      /* J = 27 */
(PID.TID 0000.0001)                 2.853728129852918E+01,      /* J = 28 */
(PID.TID 0000.0001)                 3.045756348838641E+01,      /* J = 29 */
(PID.TID 0000.0001)                 3.220655175667454E+01,      /* J = 30 */
(PID.TID 0000.0001)                 3.374005967394886E+01,      /* J = 31 */
(PID.TID 0000.0001)                 3.497677942598243E+01       /* J = 32 */
(PID.TID 0000.0001)     ;
(PID.TID 0000.0001) rcoord = /* P-point R coordinate (  units of r ) */
(PID.TID 0000.0001)                 9.500000000000000E+04,      /* K =  1 */
(PID.TID 0000.0001)                 7.750000000000000E+04,      /* K =  2 */
(PID.TID 0000.0001)                 5.000000000000000E+04,      /* K =  3 */
(PID.TID 0000.0001)                 2.500000000000000E+04,      /* K =  4 */
(PID.TID 0000.0001)                 7.500000000000000E+03       /* K =  5 */
(PID.TID 0000.0001)     ;
(PID.TID 0000.0001) rF =   /* W-Interf. R coordinate (  units of r ) */
(PID.TID 0000.0001)                 1.000000000000000E+05,      /* K =  1 */
(PID.TID 0000.0001)                 9.000000000000000E+04,      /* K =  2 */
(PID.TID 0000.0001)                 6.500000000000000E+04,      /* K =  3 */
(PID.TID 0000.0001)                 3.500000000000000E+04,      /* K =  4 */
(PID.TID 0000.0001)                 1.500000000000000E+04,      /* K =  5 */
(PID.TID 0000.0001)                 0.000000000000000E+00       /* K =  6 */
(PID.TID 0000.0001)     ;
(PID.TID 0000.0001) deepFacC = /* deep-model grid factor @ cell-Center (-) */
(PID.TID 0000.0001)     5 @  1.000000000000000E+00              /* K =  1:  5 */
(PID.TID 0000.0001)     ;
(PID.TID 0000.0001) deepFacF = /* deep-model grid factor @ W-Interface (-) */
(PID.TID 0000.0001)     6 @  1.000000000000000E+00              /* K =  1:  6 */
(PID.TID 0000.0001)     ;
(PID.TID 0000.0001) rVel2wUnit = /* convert units: rVel -> wSpeed (=1 if z-coord)*/
(PID.TID 0000.0001)                 8.468280180573759E-02,      /* K =  1 */
(PID.TID 0000.0001)                 9.264164924838553E-02,      /* K =  2 */
(PID.TID 0000.0001)                 1.218363765768670E-01,      /* K =  3 */
(PID.TID 0000.0001)                 2.012547327065781E-01,      /* K =  4 */
(PID.TID 0000.0001)                 4.382932217562046E-01,      /* K =  5 */
(PID.TID 0000.0001)                 1.000000000000000E+00       /* K =  6 */
(PID.TID 0000.0001)     ;
(PID.TID 0000.0001) wUnit2rVel = /* convert units: wSpeed -> rVel (=1 if z-coord)*/
(PID.TID 0000.0001)                 1.180877319451476E+01,      /* K =  1 */
(PID.TID 0000.0001)                 1.079428106162982E+01,      /* K =  2 */
(PID.TID 0000.0001)                 8.207729317763288E+00,      /* K =  3 */
(PID.TID 0000.0001)                 4.968827249682435E+00,      /* K =  4 */
(PID.TID 0000.0001)                 2.281577606865748E+00,      /* K =  5 */
(PID.TID 0000.0001)                 1.000000000000000E+00       /* K =  6 */
(PID.TID 0000.0001)     ;
(PID.TID 0000.0001) dBdrRef = /* Vertical grad. of reference buoyancy [(m/s/r)^2] */
(PID.TID 0000.0001)                 0.000000000000000E+00,      /* K =  1 */
(PID.TID 0000.0001)                 1.551846956946958E-06,      /* K =  2 */
(PID.TID 0000.0001)                 2.382518577942705E-06,      /* K =  3 */
(PID.TID 0000.0001)                 5.042981208886097E-06,      /* K =  4 */
(PID.TID 0000.0001)                 6.524166098263503E-05       /* K =  5 */
(PID.TID 0000.0001)     ;
(PID.TID 0000.0001) rotateGrid = /* use rotated grid ( True/False ) */
(PID.TID 0000.0001)                   F
(PID.TID 0000.0001)     ;
(PID.TID 0000.0001) phiEuler = /* Euler angle, rotation about original z-coordinate [rad] */
(PID.TID 0000.0001)                 0.000000000000000E+00
(PID.TID 0000.0001)     ;
(PID.TID 0000.0001) thetaEuler = /* Euler angle, rotation about new x-coordinate [rad] */
(PID.TID 0000.0001)                 0.000000000000000E+00
(PID.TID 0000.0001)     ;
(PID.TID 0000.0001) psiEuler = /* Euler angle, rotation about new z-coordinate [rad] */
(PID.TID 0000.0001)                 0.000000000000000E+00
(PID.TID 0000.0001)     ;
(PID.TID 0000.0001) dxF =  /* dxF(:,1,:,1) ( units: m ) */
(PID.TID 0000.0001)                 1.202082051331828E+05,      /* I =  1 */
(PID.TID 0000.0001)                 1.563594089971120E+05,      /* I =  2 */
(PID.TID 0000.0001)                 1.835530058121492E+05,      /* I =  3 */
(PID.TID 0000.0001)      . . .
(PID.TID 0000.0001)                 2.978501920522794E+05,      /* I = 46 */
(PID.TID 0000.0001)                 3.000967749619962E+05,      /* I = 47 */
(PID.TID 0000.0001)                 3.012190981969055E+05,      /* I = 48 */
(PID.TID 0000.0001)                 3.012190981969055E+05,      /* I = 49 */
(PID.TID 0000.0001)                 3.000967749619962E+05,      /* I = 50 */
(PID.TID 0000.0001)                 2.978501920522794E+05,      /* I = 51 */
(PID.TID 0000.0001)      . . .
(PID.TID 0000.0001)                 1.835530058121492E+05,      /* I = 94 */
(PID.TID 0000.0001)                 1.563594089971120E+05,      /* I = 95 */
(PID.TID 0000.0001)                 1.202082051331828E+05,      /* I = 96 */
(PID.TID 0000.0001)                 1.202082051331828E+05,      /* I = 97 */
(PID.TID 0000.0001)                 1.563594089971120E+05,      /* I = 98 */
(PID.TID 0000.0001)                 1.835530058121492E+05,      /* I = 99 */
(PID.TID 0000.0001)      . . .
(PID.TID 0000.0001)                 2.978501920522794E+05,      /* I =142 */
(PID.TID 0000.0001)                 3.000967749619962E+05,      /* I =143 */
(PID.TID 0000.0001)                 3.012190981969055E+05,      /* I =144 */
(PID.TID 0000.0001)                 3.012190981969055E+05,      /* I =145 */
(PID.TID 0000.0001)                 3.000967749619962E+05,      /* I =146 */
(PID.TID 0000.0001)                 2.978501920522794E+05,      /* I =147 */
(PID.TID 0000.0001)      . . .
(PID.TID 0000.0001)                 1.835530058121492E+05,      /* I =190 */
(PID.TID 0000.0001)                 1.563594089971120E+05,      /* I =191 */
(PID.TID 0000.0001)                 1.202082051331828E+05       /* I =192 */
(PID.TID 0000.0001)     ;
(PID.TID 0000.0001) dxF =  /* dxF(1,:,1,:) ( units: m ) */
(PID.TID 0000.0001)                 1.202082051331828E+05,      /* J =  1 */
(PID.TID 0000.0001)                 1.572908084538706E+05,      /* J =  2 */
(PID.TID 0000.0001)                 1.840412227747703E+05,      /* J =  3 */
(PID.TID 0000.0001)                 2.048868197919576E+05,      /* J =  4 */
(PID.TID 0000.0001)                 2.220405216043041E+05,      /* J =  5 */
(PID.TID 0000.0001)                 2.365892017348392E+05,      /* J =  6 */
(PID.TID 0000.0001)                 2.491250781852558E+05,      /* J =  7 */
(PID.TID 0000.0001)                 2.599949918261881E+05,      /* J =  8 */
(PID.TID 0000.0001)                 2.694110134598581E+05,      /* J =  9 */
(PID.TID 0000.0001)                 2.775055554645015E+05,      /* J = 10 */
(PID.TID 0000.0001)                 2.843615645344775E+05,      /* J = 11 */
(PID.TID 0000.0001)                 2.900303768613599E+05,      /* J = 12 */
(PID.TID 0000.0001)                 2.945429307892709E+05,      /* J = 13 */
(PID.TID 0000.0001)                 2.979171143158405E+05,      /* J = 14 */
(PID.TID 0000.0001)                 3.001626787528886E+05,      /* J = 15 */
(PID.TID 0000.0001)     2 @  3.012844832048790E+05,             /* J = 16: 17 */
(PID.TID 0000.0001)                 3.001626787528886E+05,      /* J = 18 */
(PID.TID 0000.0001)                 2.979171143158405E+05,      /* J = 19 */
(PID.TID 0000.0001)                 2.945429307892709E+05,      /* J = 20 */
(PID.TID 0000.0001)                 2.900303768613599E+05,      /* J = 21 */
(PID.TID 0000.0001)                 2.843615645344775E+05,      /* J = 22 */
(PID.TID 0000.0001)                 2.775055554645015E+05,      /* J = 23 */
(PID.TID 0000.0001)                 2.694110134598581E+05,      /* J = 24 */
(PID.TID 0000.0001)                 2.599949918261881E+05,      /* J = 25 */
(PID.TID 0000.0001)                 2.491250781852558E+05,      /* J = 26 */
(PID.TID 0000.0001)                 2.365892017348392E+05,      /* J = 27 */
(PID.TID 0000.0001)                 2.220405216043041E+05,      /* J = 28 */
(PID.TID 0000.0001)                 2.048868197919576E+05,      /* J = 29 */
(PID.TID 0000.0001)                 1.840412227747703E+05,      /* J = 30 */
(PID.TID 0000.0001)                 1.572908084538706E+05,      /* J = 31 */
(PID.TID 0000.0001)                 1.202082051331828E+05       /* J = 32 */
(PID.TID 0000.0001)     ;
(PID.TID 0000.0001) dyF =  /* dyF(:,1,:,1) ( units: m ) */
(PID.TID 0000.0001)                 1.202082051331828E+05,      /* I =  1 */
(PID.TID 0000.0001)                 1.572908084538706E+05,      /* I =  2 */
(PID.TID 0000.0001)                 1.840412227747703E+05,      /* I =  3 */
(PID.TID 0000.0001)      . . .
(PID.TID 0000.0001)                 2.979171143158405E+05,      /* I = 46 */
(PID.TID 0000.0001)                 3.001626787528886E+05,      /* I = 47 */
(PID.TID 0000.0001)                 3.012844832048790E+05,      /* I = 48 */
(PID.TID 0000.0001)                 3.012844832048790E+05,      /* I = 49 */
(PID.TID 0000.0001)                 3.001626787528886E+05,      /* I = 50 */
(PID.TID 0000.0001)                 2.979171143158405E+05,      /* I = 51 */
(PID.TID 0000.0001)      . . .
(PID.TID 0000.0001)                 1.840412227747703E+05,      /* I = 94 */
(PID.TID 0000.0001)                 1.572908084538706E+05,      /* I = 95 */
(PID.TID 0000.0001)                 1.202082051331828E+05,      /* I = 96 */
(PID.TID 0000.0001)                 1.202082051331828E+05,      /* I = 97 */
(PID.TID 0000.0001)                 1.572908084538706E+05,      /* I = 98 */
(PID.TID 0000.0001)                 1.840412227747703E+05,      /* I = 99 */
(PID.TID 0000.0001)      . . .
(PID.TID 0000.0001)                 2.979171143158405E+05,      /* I =142 */
(PID.TID 0000.0001)                 3.001626787528886E+05,      /* I =143 */
(PID.TID 0000.0001)                 3.012844832048790E+05,      /* I =144 */
(PID.TID 0000.0001)                 3.012844832048790E+05,      /* I =145 */
(PID.TID 0000.0001)                 3.001626787528886E+05,      /* I =146 */
(PID.TID 0000.0001)                 2.979171143158405E+05,      /* I =147 */
(PID.TID 0000.0001)      . . .
(PID.TID 0000.0001)                 1.840412227747703E+05,      /* I =190 */
(PID.TID 0000.0001)                 1.572908084538706E+05,      /* I =191 */
(PID.TID 0000.0001)                 1.202082051331828E+05       /* I =192 */
(PID.TID 0000.0001)     ;
(PID.TID 0000.0001) dyF =  /* dyF(1,:,1,:) ( units: m ) */
(PID.TID 0000.0001)                 1.202082051331828E+05,      /* J =  1 */
(PID.TID 0000.0001)                 1.563594089971120E+05,      /* J =  2 */
(PID.TID 0000.0001)                 1.835530058121492E+05,      /* J =  3 */
(PID.TID 0000.0001)                 2.045883481718707E+05,      /* J =  4 */
(PID.TID 0000.0001)                 2.218350349844185E+05,      /* J =  5 */
(PID.TID 0000.0001)                 2.364352994647058E+05,      /* J =  6 */
(PID.TID 0000.0001)                 2.490022710862746E+05,      /* J =  7 */
(PID.TID 0000.0001)                 2.598919724358304E+05,      /* J =  8 */
(PID.TID 0000.0001)                 2.693210245495156E+05,      /* J =  9 */
(PID.TID 0000.0001)                 2.774243179696503E+05,      /* J = 10 */
(PID.TID 0000.0001)                 2.842862532064524E+05,      /* J = 11 */
(PID.TID 0000.0001)                 2.899590699694043E+05,      /* J = 12 */
(PID.TID 0000.0001)                 2.944742915095688E+05,      /* J = 13 */
(PID.TID 0000.0001)                 2.978501920522794E+05,      /* J = 14 */
(PID.TID 0000.0001)                 3.000967749619962E+05,      /* J = 15 */
(PID.TID 0000.0001)     2 @  3.012190981969055E+05,             /* J = 16: 17 */
(PID.TID 0000.0001)                 3.000967749619962E+05,      /* J = 18 */
(PID.TID 0000.0001)                 2.978501920522794E+05,      /* J = 19 */
(PID.TID 0000.0001)                 2.944742915095688E+05,      /* J = 20 */
(PID.TID 0000.0001)                 2.899590699694043E+05,      /* J = 21 */
(PID.TID 0000.0001)                 2.842862532064524E+05,      /* J = 22 */
(PID.TID 0000.0001)                 2.774243179696503E+05,      /* J = 23 */
(PID.TID 0000.0001)                 2.693210245495156E+05,      /* J = 24 */
(PID.TID 0000.0001)                 2.598919724358304E+05,      /* J = 25 */
(PID.TID 0000.0001)                 2.490022710862746E+05,      /* J = 26 */
(PID.TID 0000.0001)                 2.364352994647058E+05,      /* J = 27 */
(PID.TID 0000.0001)                 2.218350349844185E+05,      /* J = 28 */
(PID.TID 0000.0001)                 2.045883481718707E+05,      /* J = 29 */
(PID.TID 0000.0001)                 1.835530058121492E+05,      /* J = 30 */
(PID.TID 0000.0001)                 1.563594089971120E+05,      /* J = 31 */
(PID.TID 0000.0001)                 1.202082051331828E+05       /* J = 32 */
(PID.TID 0000.0001)     ;
(PID.TID 0000.0001) dxG =  /* dxG(:,1,:,1) ( units: m ) */
(PID.TID 0000.0001)                 1.009837800879055E+05,      /* I =  1 */
(PID.TID 0000.0001)                 1.534505834330338E+05,      /* I =  2 */
(PID.TID 0000.0001)                 1.823321598773926E+05,      /* I =  3 */
(PID.TID 0000.0001)      . . .
(PID.TID 0000.0001)                 2.977867909042096E+05,      /* I = 46 */
(PID.TID 0000.0001)                 3.000380090330854E+05,      /* I = 47 */
(PID.TID 0000.0001)                 3.011625828699101E+05,      /* I = 48 */
(PID.TID 0000.0001)                 3.011625828699101E+05,      /* I = 49 */
(PID.TID 0000.0001)                 3.000380090330854E+05,      /* I = 50 */
(PID.TID 0000.0001)                 2.977867909042096E+05,      /* I = 51 */
(PID.TID 0000.0001)      . . .
(PID.TID 0000.0001)                 1.823321598773926E+05,      /* I = 94 */
(PID.TID 0000.0001)                 1.534505834330338E+05,      /* I = 95 */
(PID.TID 0000.0001)                 1.009837800879055E+05,      /* I = 96 */
(PID.TID 0000.0001)                 1.009837800879055E+05,      /* I = 97 */
(PID.TID 0000.0001)                 1.534505834330338E+05,      /* I = 98 */
(PID.TID 0000.0001)                 1.823321598773926E+05,      /* I = 99 */
(PID.TID 0000.0001)      . . .
(PID.TID 0000.0001)                 2.977867909042096E+05,      /* I =142 */
(PID.TID 0000.0001)                 3.000380090330854E+05,      /* I =143 */
(PID.TID 0000.0001)                 3.011625828699101E+05,      /* I =144 */
(PID.TID 0000.0001)                 3.011625828699101E+05,      /* I =145 */
(PID.TID 0000.0001)                 3.000380090330854E+05,      /* I =146 */
(PID.TID 0000.0001)                 2.977867909042096E+05,      /* I =147 */
(PID.TID 0000.0001)      . . .
(PID.TID 0000.0001)                 1.823321598773926E+05,      /* I =190 */
(PID.TID 0000.0001)                 1.534505834330338E+05,      /* I =191 */
(PID.TID 0000.0001)                 1.009837800879055E+05       /* I =192 */
(PID.TID 0000.0001)     ;
(PID.TID 0000.0001) dxG =  /* dxG(1,:,1,:) ( units: m ) */
(PID.TID 0000.0001)                 1.009837800879055E+05,      /* J =  1 */
(PID.TID 0000.0001)                 1.403701524205398E+05,      /* J =  2 */
(PID.TID 0000.0001)                 1.716197227386011E+05,      /* J =  3 */
(PID.TID 0000.0001)                 1.950254041626018E+05,      /* J =  4 */
(PID.TID 0000.0001)                 2.138410773065497E+05,      /* J =  5 */
(PID.TID 0000.0001)                 2.295958105911512E+05,      /* J =  6 */
(PID.TID 0000.0001)                 2.430829951739083E+05,      /* J =  7 */
(PID.TID 0000.0001)                 2.547526806712889E+05,      /* J =  8 */
(PID.TID 0000.0001)                 2.648750305193301E+05,      /* J =  9 */
(PID.TID 0000.0001)                 2.736173771018112E+05,      /* J = 10 */
(PID.TID 0000.0001)                 2.810845823202647E+05,      /* J = 11 */
(PID.TID 0000.0001)                 2.873420591008078E+05,      /* J = 12 */
(PID.TID 0000.0001)                 2.924298293668651E+05,      /* J = 13 */
(PID.TID 0000.0001)                 2.963715635865306E+05,      /* J = 14 */
(PID.TID 0000.0001)                 2.991805843171258E+05,      /* J = 15 */
(PID.TID 0000.0001)                 3.008638765647886E+05,      /* J = 16 */
(PID.TID 0000.0001)                 3.014246674484008E+05,      /* J = 17 */
(PID.TID 0000.0001)                 3.008638765647886E+05,      /* J = 18 */
(PID.TID 0000.0001)                 2.991805843171258E+05,      /* J = 19 */
(PID.TID 0000.0001)                 2.963715635865306E+05,      /* J = 20 */
(PID.TID 0000.0001)                 2.924298293668651E+05,      /* J = 21 */
(PID.TID 0000.0001)                 2.873420591008078E+05,      /* J = 22 */
(PID.TID 0000.0001)                 2.810845823202647E+05,      /* J = 23 */
(PID.TID 0000.0001)                 2.736173771018112E+05,      /* J = 24 */
(PID.TID 0000.0001)                 2.648750305193301E+05,      /* J = 25 */
(PID.TID 0000.0001)                 2.547526806712889E+05,      /* J = 26 */
(PID.TID 0000.0001)                 2.430829951739083E+05,      /* J = 27 */
(PID.TID 0000.0001)                 2.295958105911512E+05,      /* J = 28 */
(PID.TID 0000.0001)                 2.138410773065497E+05,      /* J = 29 */
(PID.TID 0000.0001)                 1.950254041626018E+05,      /* J = 30 */
(PID.TID 0000.0001)                 1.716197227386011E+05,      /* J = 31 */
(PID.TID 0000.0001)                 1.403701524205398E+05       /* J = 32 */
(PID.TID 0000.0001)     ;
(PID.TID 0000.0001) dyG =  /* dyG(:,1,:,1) ( units: m ) */
(PID.TID 0000.0001)                 1.009837800879055E+05,      /* I =  1 */
(PID.TID 0000.0001)                 1.403701524205398E+05,      /* I =  2 */
(PID.TID 0000.0001)                 1.716197227386011E+05,      /* I =  3 */
(PID.TID 0000.0001)      . . .
(PID.TID 0000.0001)                 2.963715635865306E+05,      /* I = 46 */
(PID.TID 0000.0001)                 2.991805843171258E+05,      /* I = 47 */
(PID.TID 0000.0001)                 3.008638765647886E+05,      /* I = 48 */
(PID.TID 0000.0001)                 3.014246674484008E+05,      /* I = 49 */
(PID.TID 0000.0001)                 3.008638765647886E+05,      /* I = 50 */
(PID.TID 0000.0001)                 2.991805843171258E+05,      /* I = 51 */
(PID.TID 0000.0001)      . . .
(PID.TID 0000.0001)                 1.950254041626018E+05,      /* I = 94 */
(PID.TID 0000.0001)                 1.716197227386011E+05,      /* I = 95 */
(PID.TID 0000.0001)                 1.403701524205398E+05,      /* I = 96 */
(PID.TID 0000.0001)                 1.009837800879055E+05,      /* I = 97 */
(PID.TID 0000.0001)                 1.403701524205398E+05,      /* I = 98 */
(PID.TID 0000.0001)                 1.716197227386011E+05,      /* I = 99 */
(PID.TID 0000.0001)      . . .
(PID.TID 0000.0001)                 2.963715635865306E+05,      /* I =142 */
(PID.TID 0000.0001)                 2.991805843171258E+05,      /* I =143 */
(PID.TID 0000.0001)                 3.008638765647886E+05,      /* I =144 */
(PID.TID 0000.0001)                 3.014246674484008E+05,      /* I =145 */
(PID.TID 0000.0001)                 3.008638765647886E+05,      /* I =146 */
(PID.TID 0000.0001)                 2.991805843171258E+05,      /* I =147 */
(PID.TID 0000.0001)      . . .
(PID.TID 0000.0001)                 1.950254041626018E+05,      /* I =190 */
(PID.TID 0000.0001)                 1.716197227386011E+05,      /* I =191 */
(PID.TID 0000.0001)                 1.403701524205398E+05       /* I =192 */
(PID.TID 0000.0001)     ;
(PID.TID 0000.0001) dyG =  /* dyG(1,:,1,:) ( units: m ) */
(PID.TID 0000.0001)                 1.009837800879055E+05,      /* J =  1 */
(PID.TID 0000.0001)                 1.534505834330338E+05,      /* J =  2 */
(PID.TID 0000.0001)                 1.823321598773926E+05,      /* J =  3 */
(PID.TID 0000.0001)                 2.038999045536999E+05,      /* J =  4 */
(PID.TID 0000.0001)                 2.213884732245467E+05,      /* J =  5 */
(PID.TID 0000.0001)                 2.361211699596122E+05,      /* J =  6 */
(PID.TID 0000.0001)                 2.487693460283865E+05,      /* J =  7 */
(PID.TID 0000.0001)                 2.597126963772147E+05,      /* J =  8 */
(PID.TID 0000.0001)                 2.691790288994575E+05,      /* J =  9 */
(PID.TID 0000.0001)                 2.773091043277394E+05,      /* J = 10 */
(PID.TID 0000.0001)                 2.841906470085516E+05,      /* J = 11 */
(PID.TID 0000.0001)                 2.898778860929753E+05,      /* J = 12 */
(PID.TID 0000.0001)                 2.944035815526416E+05,      /* J = 13 */
(PID.TID 0000.0001)                 2.977867909042096E+05,      /* J = 14 */
(PID.TID 0000.0001)                 3.000380090330854E+05,      /* J = 15 */
(PID.TID 0000.0001)     2 @  3.011625828699101E+05,             /* J = 16: 17 */
(PID.TID 0000.0001)                 3.000380090330854E+05,      /* J = 18 */
(PID.TID 0000.0001)                 2.977867909042096E+05,      /* J = 19 */
(PID.TID 0000.0001)                 2.944035815526416E+05,      /* J = 20 */
(PID.TID 0000.0001)                 2.898778860929753E+05,      /* J = 21 */
(PID.TID 0000.0001)                 2.841906470085516E+05,      /* J = 22 */
(PID.TID 0000.0001)                 2.773091043277394E+05,      /* J = 23 */
(PID.TID 0000.0001)                 2.691790288994575E+05,      /* J = 24 */
(PID.TID 0000.0001)                 2.597126963772147E+05,      /* J = 25 */
(PID.TID 0000.0001)                 2.487693460283865E+05,      /* J = 26 */
(PID.TID 0000.0001)                 2.361211699596122E+05,      /* J = 27 */
(PID.TID 0000.0001)                 2.213884732245467E+05,      /* J = 28 */
(PID.TID 0000.0001)                 2.038999045536999E+05,      /* J = 29 */
(PID.TID 0000.0001)                 1.823321598773926E+05,      /* J = 30 */
(PID.TID 0000.0001)                 1.534505834330338E+05,      /* J = 31 */
(PID.TID 0000.0001)                 1.009837800879055E+05       /* J = 32 */
(PID.TID 0000.0001)     ;
(PID.TID 0000.0001) dxC =  /* dxC(:,1,:,1) ( units: m ) */
(PID.TID 0000.0001)                 1.114203141013064E+05,      /* I =  1 */
(PID.TID 0000.0001)                 1.391343389937106E+05,      /* I =  2 */
(PID.TID 0000.0001)                 1.709574999026266E+05,      /* I =  3 */
(PID.TID 0000.0001)      . . .
(PID.TID 0000.0001)                 2.963038832565530E+05,      /* I = 46 */
(PID.TID 0000.0001)                 2.991142470004740E+05,      /* I = 47 */
(PID.TID 0000.0001)                 3.007982711627968E+05,      /* I = 48 */
(PID.TID 0000.0001)                 3.013593857228136E+05,      /* I = 49 */
(PID.TID 0000.0001)                 3.007982711627968E+05,      /* I = 50 */
(PID.TID 0000.0001)                 2.991142470004740E+05,      /* I = 51 */
(PID.TID 0000.0001)      . . .
(PID.TID 0000.0001)                 1.946503699269892E+05,      /* I = 94 */
(PID.TID 0000.0001)                 1.709574999026266E+05,      /* I = 95 */
(PID.TID 0000.0001)                 1.391343389937106E+05,      /* I = 96 */
(PID.TID 0000.0001)                 1.114203141013064E+05,      /* I = 97 */
(PID.TID 0000.0001)                 1.391343389937106E+05,      /* I = 98 */
(PID.TID 0000.0001)                 1.709574999026266E+05,      /* I = 99 */
(PID.TID 0000.0001)      . . .
(PID.TID 0000.0001)                 2.963038832565530E+05,      /* I =142 */
(PID.TID 0000.0001)                 2.991142470004740E+05,      /* I =143 */
(PID.TID 0000.0001)                 3.007982711627968E+05,      /* I =144 */
(PID.TID 0000.0001)                 3.013593857228136E+05,      /* I =145 */
(PID.TID 0000.0001)                 3.007982711627968E+05,      /* I =146 */
(PID.TID 0000.0001)                 2.991142470004740E+05,      /* I =147 */
(PID.TID 0000.0001)      . . .
(PID.TID 0000.0001)                 1.946503699269892E+05,      /* I =190 */
(PID.TID 0000.0001)                 1.709574999026266E+05,      /* I =191 */
(PID.TID 0000.0001)                 1.391343389937106E+05       /* I =192 */
(PID.TID 0000.0001)     ;
(PID.TID 0000.0001) dxC =  /* dxC(1,:,1,:) ( units: m ) */
(PID.TID 0000.0001)                 1.114203141013064E+05,      /* J =  1 */
(PID.TID 0000.0001)                 1.549545757850771E+05,      /* J =  2 */
(PID.TID 0000.0001)                 1.829777599966776E+05,      /* J =  3 */
(PID.TID 0000.0001)                 2.042717761866506E+05,      /* J =  4 */
(PID.TID 0000.0001)                 2.216367828252819E+05,      /* J =  5 */
(PID.TID 0000.0001)                 2.363029564123586E+05,      /* J =  6 */
(PID.TID 0000.0001)                 2.489113743322025E+05,      /* J =  7 */
(PID.TID 0000.0001)                 2.598293319150326E+05,      /* J =  8 */
(PID.TID 0000.0001)                 2.692787333338535E+05,      /* J =  9 */
(PID.TID 0000.0001)                 2.773972106720365E+05,      /* J = 10 */
(PID.TID 0000.0001)                 2.842706922224557E+05,      /* J = 11 */
(PID.TID 0000.0001)                 2.899523122489403E+05,      /* J = 12 */
(PID.TID 0000.0001)                 2.944741346384699E+05,      /* J = 13 */
(PID.TID 0000.0001)                 2.978547649292580E+05,      /* J = 14 */
(PID.TID 0000.0001)                 3.001044073506459E+05,      /* J = 15 */
(PID.TID 0000.0001)     2 @  3.012281885409289E+05,             /* J = 16: 17 */
(PID.TID 0000.0001)                 3.001044073506459E+05,      /* J = 18 */
(PID.TID 0000.0001)                 2.978547649292580E+05,      /* J = 19 */
(PID.TID 0000.0001)                 2.944741346384699E+05,      /* J = 20 */
(PID.TID 0000.0001)                 2.899523122489403E+05,      /* J = 21 */
(PID.TID 0000.0001)                 2.842706922224557E+05,      /* J = 22 */
(PID.TID 0000.0001)                 2.773972106720365E+05,      /* J = 23 */
(PID.TID 0000.0001)                 2.692787333338535E+05,      /* J = 24 */
(PID.TID 0000.0001)                 2.598293319150326E+05,      /* J = 25 */
(PID.TID 0000.0001)                 2.489113743322025E+05,      /* J = 26 */
(PID.TID 0000.0001)                 2.363029564123586E+05,      /* J = 27 */
(PID.TID 0000.0001)                 2.216367828252819E+05,      /* J = 28 */
(PID.TID 0000.0001)                 2.042717761866506E+05,      /* J = 29 */
(PID.TID 0000.0001)                 1.829777599966776E+05,      /* J = 30 */
(PID.TID 0000.0001)                 1.549545757850771E+05,      /* J = 31 */
(PID.TID 0000.0001)                 1.114203141013064E+05       /* J = 32 */
(PID.TID 0000.0001)     ;
(PID.TID 0000.0001) dyC =  /* dyC(:,1,:,1) ( units: m ) */
(PID.TID 0000.0001)                 1.114203141013064E+05,      /* I =  1 */
(PID.TID 0000.0001)                 1.549545757850771E+05,      /* I =  2 */
(PID.TID 0000.0001)                 1.829777599966776E+05,      /* I =  3 */
(PID.TID 0000.0001)      . . .
(PID.TID 0000.0001)                 2.978547649292580E+05,      /* I = 46 */
(PID.TID 0000.0001)                 3.001044073506459E+05,      /* I = 47 */
(PID.TID 0000.0001)                 3.012281885409289E+05,      /* I = 48 */
(PID.TID 0000.0001)                 3.012281885409289E+05,      /* I = 49 */
(PID.TID 0000.0001)                 3.001044073506459E+05,      /* I = 50 */
(PID.TID 0000.0001)                 2.978547649292580E+05,      /* I = 51 */
(PID.TID 0000.0001)      . . .
(PID.TID 0000.0001)                 1.829777599966776E+05,      /* I = 94 */
(PID.TID 0000.0001)                 1.549545757850771E+05,      /* I = 95 */
(PID.TID 0000.0001)                 1.114203141013064E+05,      /* I = 96 */
(PID.TID 0000.0001)                 1.114203141013064E+05,      /* I = 97 */
(PID.TID 0000.0001)                 1.549545757850771E+05,      /* I = 98 */
(PID.TID 0000.0001)                 1.829777599966776E+05,      /* I = 99 */
(PID.TID 0000.0001)      . . .
(PID.TID 0000.0001)                 2.978547649292580E+05,      /* I =142 */
(PID.TID 0000.0001)                 3.001044073506459E+05,      /* I =143 */
(PID.TID 0000.0001)                 3.012281885409289E+05,      /* I =144 */
(PID.TID 0000.0001)                 3.012281885409289E+05,      /* I =145 */
(PID.TID 0000.0001)                 3.001044073506459E+05,      /* I =146 */
(PID.TID 0000.0001)                 2.978547649292580E+05,      /* I =147 */
(PID.TID 0000.0001)      . . .
(PID.TID 0000.0001)                 1.829777599966776E+05,      /* I =190 */
(PID.TID 0000.0001)                 1.549545757850771E+05,      /* I =191 */
(PID.TID 0000.0001)                 1.114203141013064E+05       /* I =192 */
(PID.TID 0000.0001)     ;
(PID.TID 0000.0001) dyC =  /* dyC(1,:,1,:) ( units: m ) */
(PID.TID 0000.0001)                 1.114203141013064E+05,      /* J =  1 */
(PID.TID 0000.0001)                 1.391343389937106E+05,      /* J =  2 */
(PID.TID 0000.0001)                 1.709574999026266E+05,      /* J =  3 */
(PID.TID 0000.0001)                 1.946503699269892E+05,      /* J =  4 */
(PID.TID 0000.0001)                 2.135964483342134E+05,      /* J =  5 */
(PID.TID 0000.0001)                 2.294195678257306E+05,      /* J =  6 */
(PID.TID 0000.0001)                 2.429464709770498E+05,      /* J =  7 */
(PID.TID 0000.0001)                 2.546408290696998E+05,      /* J =  8 */
(PID.TID 0000.0001)                 2.647791839299727E+05,      /* J =  9 */
(PID.TID 0000.0001)                 2.735321911346108E+05,      /* J = 10 */
(PID.TID 0000.0001)                 2.810065951609633E+05,      /* J = 11 */
(PID.TID 0000.0001)                 2.872689479506990E+05,      /* J = 12 */
(PID.TID 0000.0001)                 2.923599955312932E+05,      /* J = 13 */
(PID.TID 0000.0001)                 2.963038832565530E+05,      /* J = 14 */
(PID.TID 0000.0001)                 2.991142470004740E+05,      /* J = 15 */
(PID.TID 0000.0001)                 3.007982711627968E+05,      /* J = 16 */
(PID.TID 0000.0001)                 3.013593857228136E+05,      /* J = 17 */
(PID.TID 0000.0001)                 3.007982711627968E+05,      /* J = 18 */
(PID.TID 0000.0001)                 2.991142470004740E+05,      /* J = 19 */
(PID.TID 0000.0001)                 2.963038832565530E+05,      /* J = 20 */
(PID.TID 0000.0001)                 2.923599955312932E+05,      /* J = 21 */
(PID.TID 0000.0001)                 2.872689479506990E+05,      /* J = 22 */
(PID.TID 0000.0001)                 2.810065951609633E+05,      /* J = 23 */
(PID.TID 0000.0001)                 2.735321911346108E+05,      /* J = 24 */
(PID.TID 0000.0001)                 2.647791839299727E+05,      /* J = 25 */
(PID.TID 0000.0001)                 2.546408290696998E+05,      /* J = 26 */
(PID.TID 0000.0001)                 2.429464709770498E+05,      /* J = 27 */
(PID.TID 0000.0001)                 2.294195678257306E+05,      /* J = 28 */
(PID.TID 0000.0001)                 2.135964483342134E+05,      /* J = 29 */
(PID.TID 0000.0001)                 1.946503699269892E+05,      /* J = 30 */
(PID.TID 0000.0001)                 1.709574999026266E+05,      /* J = 31 */
(PID.TID 0000.0001)                 1.391343389937106E+05       /* J = 32 */
(PID.TID 0000.0001)     ;
(PID.TID 0000.0001) dxV =  /* dxV(:,1,:,1) ( units: m ) */
(PID.TID 0000.0001)                 8.015229982413632E+04,      /* I =  1 */
(PID.TID 0000.0001)                 1.333130744933864E+05,      /* I =  2 */
(PID.TID 0000.0001)                 1.691744868129062E+05,      /* I =  3 */
(PID.TID 0000.0001)      . . .
(PID.TID 0000.0001)                 2.962371870847826E+05,      /* I = 46 */
(PID.TID 0000.0001)                 2.990534755671296E+05,      /* I = 47 */
(PID.TID 0000.0001)                 3.007409169495504E+05,      /* I = 48 */
(PID.TID 0000.0001)                 3.013031486919771E+05,      /* I = 49 */
(PID.TID 0000.0001)                 3.007409169495504E+05,      /* I = 50 */
(PID.TID 0000.0001)                 2.990534755671296E+05,      /* I = 51 */
(PID.TID 0000.0001)      . . .
(PID.TID 0000.0001)                 1.937548202849060E+05,      /* I = 94 */
(PID.TID 0000.0001)                 1.691744868129062E+05,      /* I = 95 */
(PID.TID 0000.0001)                 1.333130744933864E+05,      /* I = 96 */
(PID.TID 0000.0001)                 8.015229982413632E+04,      /* I = 97 */
(PID.TID 0000.0001)                 1.333130744933864E+05,      /* I = 98 */
(PID.TID 0000.0001)                 1.691744868129062E+05,      /* I = 99 */
(PID.TID 0000.0001)      . . .
(PID.TID 0000.0001)                 2.962371870847826E+05,      /* I =142 */
(PID.TID 0000.0001)                 2.990534755671296E+05,      /* I =143 */
(PID.TID 0000.0001)                 3.007409169495504E+05,      /* I =144 */
(PID.TID 0000.0001)                 3.013031486919771E+05,      /* I =145 */
(PID.TID 0000.0001)                 3.007409169495504E+05,      /* I =146 */
(PID.TID 0000.0001)                 2.990534755671296E+05,      /* I =147 */
(PID.TID 0000.0001)      . . .
(PID.TID 0000.0001)                 1.937548202849060E+05,      /* I =190 */
(PID.TID 0000.0001)                 1.691744868129062E+05,      /* I =191 */
(PID.TID 0000.0001)                 1.333130744933864E+05       /* I =192 */
(PID.TID 0000.0001)     ;
(PID.TID 0000.0001) dxV =  /* dxV(1,:,1,:) ( units: m ) */
(PID.TID 0000.0001)                 8.015229982413632E+04,      /* J =  1 */
(PID.TID 0000.0001)                 1.362652340208229E+05,      /* J =  2 */
(PID.TID 0000.0001)                 1.701080315742101E+05,      /* J =  3 */
(PID.TID 0000.0001)                 1.942331448101592E+05,      /* J =  4 */
(PID.TID 0000.0001)                 2.133486626971531E+05,      /* J =  5 */
(PID.TID 0000.0001)                 2.292584591272880E+05,      /* J =  6 */
(PID.TID 0000.0001)                 2.428369969078989E+05,      /* J =  7 */
(PID.TID 0000.0001)                 2.545652950875683E+05,      /* J =  8 */
(PID.TID 0000.0001)                 2.647274964828301E+05,      /* J =  9 */
(PID.TID 0000.0001)                 2.734980225206389E+05,      /* J = 10 */
(PID.TID 0000.0001)                 2.809856491525217E+05,      /* J = 11 */
(PID.TID 0000.0001)                 2.872580915202295E+05,      /* J = 12 */
(PID.TID 0000.0001)                 2.923567890694162E+05,      /* J = 13 */
(PID.TID 0000.0001)                 2.963063101754721E+05,      /* J = 14 */
(PID.TID 0000.0001)                 2.991205495886625E+05,      /* J = 15 */
(PID.TID 0000.0001)                 3.008068453676764E+05,      /* J = 16 */
(PID.TID 0000.0001)                 3.013686170436881E+05,      /* J = 17 */
(PID.TID 0000.0001)                 3.008068453676764E+05,      /* J = 18 */
(PID.TID 0000.0001)                 2.991205495886625E+05,      /* J = 19 */
(PID.TID 0000.0001)                 2.963063101754721E+05,      /* J = 20 */
(PID.TID 0000.0001)                 2.923567890694162E+05,      /* J = 21 */
(PID.TID 0000.0001)                 2.872580915202295E+05,      /* J = 22 */
(PID.TID 0000.0001)                 2.809856491525217E+05,      /* J = 23 */
(PID.TID 0000.0001)                 2.734980225206389E+05,      /* J = 24 */
(PID.TID 0000.0001)                 2.647274964828301E+05,      /* J = 25 */
(PID.TID 0000.0001)                 2.545652950875683E+05,      /* J = 26 */
(PID.TID 0000.0001)                 2.428369969078989E+05,      /* J = 27 */
(PID.TID 0000.0001)                 2.292584591272880E+05,      /* J = 28 */
(PID.TID 0000.0001)                 2.133486626971531E+05,      /* J = 29 */
(PID.TID 0000.0001)                 1.942331448101592E+05,      /* J = 30 */
(PID.TID 0000.0001)                 1.701080315742101E+05,      /* J = 31 */
(PID.TID 0000.0001)                 1.362652340208229E+05       /* J = 32 */
(PID.TID 0000.0001)     ;
(PID.TID 0000.0001) dyU =  /* dyU(:,1,:,1) ( units: m ) */
(PID.TID 0000.0001)                 8.015229982413632E+04,      /* I =  1 */
(PID.TID 0000.0001)                 1.362652340208229E+05,      /* I =  2 */
(PID.TID 0000.0001)                 1.701080315742101E+05,      /* I =  3 */
(PID.TID 0000.0001)      . . .
(PID.TID 0000.0001)                 2.963063101754721E+05,      /* I = 46 */
(PID.TID 0000.0001)                 2.991205495886625E+05,      /* I = 47 */
(PID.TID 0000.0001)                 3.008068453676764E+05,      /* I = 48 */
(PID.TID 0000.0001)                 3.013686170436881E+05,      /* I = 49 */
(PID.TID 0000.0001)                 3.008068453676764E+05,      /* I = 50 */
(PID.TID 0000.0001)                 2.991205495886625E+05,      /* I = 51 */
(PID.TID 0000.0001)      . . .
(PID.TID 0000.0001)                 1.942331448101592E+05,      /* I = 94 */
(PID.TID 0000.0001)                 1.701080315742101E+05,      /* I = 95 */
(PID.TID 0000.0001)                 1.362652340208229E+05,      /* I = 96 */
(PID.TID 0000.0001)                 8.015229982413632E+04,      /* I = 97 */
(PID.TID 0000.0001)                 1.362652340208229E+05,      /* I = 98 */
(PID.TID 0000.0001)                 1.701080315742101E+05,      /* I = 99 */
(PID.TID 0000.0001)      . . .
(PID.TID 0000.0001)                 2.963063101754721E+05,      /* I =142 */
(PID.TID 0000.0001)                 2.991205495886625E+05,      /* I =143 */
(PID.TID 0000.0001)                 3.008068453676764E+05,      /* I =144 */
(PID.TID 0000.0001)                 3.013686170436881E+05,      /* I =145 */
(PID.TID 0000.0001)                 3.008068453676764E+05,      /* I =146 */
(PID.TID 0000.0001)                 2.991205495886625E+05,      /* I =147 */
(PID.TID 0000.0001)      . . .
(PID.TID 0000.0001)                 1.942331448101592E+05,      /* I =190 */
(PID.TID 0000.0001)                 1.701080315742101E+05,      /* I =191 */
(PID.TID 0000.0001)                 1.362652340208229E+05       /* I =192 */
(PID.TID 0000.0001)     ;
(PID.TID 0000.0001) dyU =  /* dyU(1,:,1,:) ( units: m ) */
(PID.TID 0000.0001)                 8.015229982413632E+04,      /* J =  1 */
(PID.TID 0000.0001)                 1.333130744933864E+05,      /* J =  2 */
(PID.TID 0000.0001)                 1.691744868129062E+05,      /* J =  3 */
(PID.TID 0000.0001)                 1.937548202849060E+05,      /* J =  4 */
(PID.TID 0000.0001)                 2.130490056267208E+05,      /* J =  5 */
(PID.TID 0000.0001)                 2.290479919481738E+05,      /* J =  6 */
(PID.TID 0000.0001)                 2.426774358027003E+05,      /* J =  7 */
(PID.TID 0000.0001)                 2.544372984215561E+05,      /* J =  8 */
(PID.TID 0000.0001)                 2.646201463834826E+05,      /* J =  9 */
(PID.TID 0000.0001)                 2.734046499619031E+05,      /* J = 10 */
(PID.TID 0000.0001)                 2.809019351693761E+05,      /* J = 11 */
(PID.TID 0000.0001)                 2.871811105274442E+05,      /* J = 12 */
(PID.TID 0000.0001)                 2.922844849381675E+05,      /* J = 13 */
(PID.TID 0000.0001)                 2.962371870847826E+05,      /* J = 14 */
(PID.TID 0000.0001)                 2.990534755671296E+05,      /* J = 15 */
(PID.TID 0000.0001)                 3.007409169495504E+05,      /* J = 16 */
(PID.TID 0000.0001)                 3.013031486919771E+05,      /* J = 17 */
(PID.TID 0000.0001)                 3.007409169495504E+05,      /* J = 18 */
(PID.TID 0000.0001)                 2.990534755671296E+05,      /* J = 19 */
(PID.TID 0000.0001)                 2.962371870847826E+05,      /* J = 20 */
(PID.TID 0000.0001)                 2.922844849381675E+05,      /* J = 21 */
(PID.TID 0000.0001)                 2.871811105274442E+05,      /* J = 22 */
(PID.TID 0000.0001)                 2.809019351693761E+05,      /* J = 23 */
(PID.TID 0000.0001)                 2.734046499619031E+05,      /* J = 24 */
(PID.TID 0000.0001)                 2.646201463834826E+05,      /* J = 25 */
(PID.TID 0000.0001)                 2.544372984215561E+05,      /* J = 26 */
(PID.TID 0000.0001)                 2.426774358027003E+05,      /* J = 27 */
(PID.TID 0000.0001)                 2.290479919481738E+05,      /* J = 28 */
(PID.TID 0000.0001)                 2.130490056267208E+05,      /* J = 29 */
(PID.TID 0000.0001)                 1.937548202849060E+05,      /* J = 30 */
(PID.TID 0000.0001)                 1.691744868129062E+05,      /* J = 31 */
(PID.TID 0000.0001)                 1.333130744933864E+05       /* J = 32 */
(PID.TID 0000.0001)     ;
(PID.TID 0000.0001) rA  =  /* rA (:,1,:,1) ( units: m^2 ) */
(PID.TID 0000.0001)                 1.401900702255611E+10,      /* I =  1 */
(PID.TID 0000.0001)                 2.459906945574446E+10,      /* I =  2 */
(PID.TID 0000.0001)                 3.378518544307869E+10,      /* I =  3 */
(PID.TID 0000.0001)      . . .
(PID.TID 0000.0001)                 8.874277443041928E+10,      /* I = 46 */
(PID.TID 0000.0001)                 9.008620045350865E+10,      /* I = 47 */
(PID.TID 0000.0001)                 9.076111290418457E+10,      /* I = 48 */
(PID.TID 0000.0001)                 9.076111290422060E+10,      /* I = 49 */
(PID.TID 0000.0001)                 9.008620045354469E+10,      /* I = 50 */
(PID.TID 0000.0001)                 8.874277443041928E+10,      /* I = 51 */
(PID.TID 0000.0001)      . . .
(PID.TID 0000.0001)                 3.378518544304265E+10,      /* I = 94 */
(PID.TID 0000.0001)                 2.459906945574446E+10,      /* I = 95 */
(PID.TID 0000.0001)                 1.401900702259215E+10,      /* I = 96 */
(PID.TID 0000.0001)                 1.401900702255611E+10,      /* I = 97 */
(PID.TID 0000.0001)                 2.459906945574446E+10,      /* I = 98 */
(PID.TID 0000.0001)                 3.378518544307869E+10,      /* I = 99 */
(PID.TID 0000.0001)      . . .
(PID.TID 0000.0001)                 8.874277443041928E+10,      /* I =142 */
(PID.TID 0000.0001)                 9.008620045350865E+10,      /* I =143 */
(PID.TID 0000.0001)                 9.076111290418457E+10,      /* I =144 */
(PID.TID 0000.0001)                 9.076111290422060E+10,      /* I =145 */
(PID.TID 0000.0001)                 9.008620045354469E+10,      /* I =146 */
(PID.TID 0000.0001)                 8.874277443041928E+10,      /* I =147 */
(PID.TID 0000.0001)      . . .
(PID.TID 0000.0001)                 3.378518544304265E+10,      /* I =190 */
(PID.TID 0000.0001)                 2.459906945574446E+10,      /* I =191 */
(PID.TID 0000.0001)                 1.401900702259215E+10       /* I =192 */
(PID.TID 0000.0001)     ;
(PID.TID 0000.0001) rA  =  /* rA (1,:,1,:) ( units: m^2 ) */
(PID.TID 0000.0001)                 1.401900702255611E+10,      /* J =  1 */
(PID.TID 0000.0001)                 2.459906945574446E+10,      /* J =  2 */
(PID.TID 0000.0001)                 3.378518544307869E+10,      /* J =  3 */
(PID.TID 0000.0001)                 4.192037169898667E+10,      /* J =  4 */
(PID.TID 0000.0001)                 4.925938996118163E+10,      /* J =  5 */
(PID.TID 0000.0001)                 5.594154126607553E+10,      /* J =  6 */
(PID.TID 0000.0001)                 6.203683527776127E+10,      /* J =  7 */
(PID.TID 0000.0001)                 6.757541173817516E+10,      /* J =  8 */
(PID.TID 0000.0001)                 7.256353271748119E+10,      /* J =  9 */
(PID.TID 0000.0001)                 7.699293007098555E+10,      /* J = 10 */
(PID.TID 0000.0001)                 8.084683449728902E+10,      /* J = 11 */
(PID.TID 0000.0001)                 8.410423102799828E+10,      /* J = 12 */
(PID.TID 0000.0001)                 8.674306976737517E+10,      /* J = 13 */
(PID.TID 0000.0001)                 8.874277443041928E+10,      /* J = 14 */
(PID.TID 0000.0001)                 9.008620045350865E+10,      /* J = 15 */
(PID.TID 0000.0001)                 9.076111290418457E+10,      /* J = 16 */
(PID.TID 0000.0001)                 9.076111290422060E+10,      /* J = 17 */
(PID.TID 0000.0001)                 9.008620045354469E+10,      /* J = 18 */
(PID.TID 0000.0001)                 8.874277443041928E+10,      /* J = 19 */
(PID.TID 0000.0001)                 8.674306976737517E+10,      /* J = 20 */
(PID.TID 0000.0001)                 8.410423102799828E+10,      /* J = 21 */
(PID.TID 0000.0001)                 8.084683449728902E+10,      /* J = 22 */
(PID.TID 0000.0001)                 7.699293007098555E+10,      /* J = 23 */
(PID.TID 0000.0001)                 7.256353271748119E+10,      /* J = 24 */
(PID.TID 0000.0001)                 6.757541173817516E+10,      /* J = 25 */
(PID.TID 0000.0001)                 6.203683527772523E+10,      /* J = 26 */
(PID.TID 0000.0001)                 5.594154126607553E+10,      /* J = 27 */
(PID.TID 0000.0001)                 4.925938996118163E+10,      /* J = 28 */
(PID.TID 0000.0001)                 4.192037169898667E+10,      /* J = 29 */
(PID.TID 0000.0001)                 3.378518544307869E+10,      /* J = 30 */
(PID.TID 0000.0001)                 2.459906945574446E+10,      /* J = 31 */
(PID.TID 0000.0001)                 1.401900702259215E+10       /* J = 32 */
(PID.TID 0000.0001)     ;
(PID.TID 0000.0001) rAw =  /* rAw(:,1,:,1) ( units: m^2 ) */
(PID.TID 0000.0001)                 1.216690346714270E+10,      /* I =  1 */
(PID.TID 0000.0001)                 1.974052138506315E+10,      /* I =  2 */
(PID.TID 0000.0001)                 2.943712825252015E+10,      /* I =  3 */
(PID.TID 0000.0001)      . . .
(PID.TID 0000.0001)                 8.781353403175085E+10,      /* I = 46 */
(PID.TID 0000.0001)                 8.948571540392021E+10,      /* I = 47 */
(PID.TID 0000.0001)                 9.049530583086168E+10,      /* I = 48 */
(PID.TID 0000.0001)                 9.083293515008307E+10,      /* I = 49 */
(PID.TID 0000.0001)                 9.049530583087070E+10,      /* I = 50 */
(PID.TID 0000.0001)                 8.948571540391121E+10,      /* I = 51 */
(PID.TID 0000.0001)      . . .
(PID.TID 0000.0001)                 3.801790263325260E+10,      /* I = 94 */
(PID.TID 0000.0001)                 2.943712825251114E+10,      /* I = 95 */
(PID.TID 0000.0001)                 1.974052138509018E+10,      /* I = 96 */
(PID.TID 0000.0001)                 1.216690346714270E+10,      /* I = 97 */
(PID.TID 0000.0001)                 1.974052138506315E+10,      /* I = 98 */
(PID.TID 0000.0001)                 2.943712825252015E+10,      /* I = 99 */
(PID.TID 0000.0001)      . . .
(PID.TID 0000.0001)                 8.781353403175085E+10,      /* I =142 */
(PID.TID 0000.0001)                 8.948571540392021E+10,      /* I =143 */
(PID.TID 0000.0001)                 9.049530583086168E+10,      /* I =144 */
(PID.TID 0000.0001)                 9.083293515008307E+10,      /* I =145 */
(PID.TID 0000.0001)                 9.049530583087070E+10,      /* I =146 */
(PID.TID 0000.0001)                 8.948571540391121E+10,      /* I =147 */
(PID.TID 0000.0001)      . . .
(PID.TID 0000.0001)                 3.801790263325260E+10,      /* I =190 */
(PID.TID 0000.0001)                 2.943712825251114E+10,      /* I =191 */
(PID.TID 0000.0001)                 1.974052138509018E+10       /* I =192 */
(PID.TID 0000.0001)     ;
(PID.TID 0000.0001) rAw =  /* rAw(1,:,1,:) ( units: m^2 ) */
(PID.TID 0000.0001)                 1.216690346714270E+10,      /* J =  1 */
(PID.TID 0000.0001)                 2.390126200743558E+10,      /* J =  2 */
(PID.TID 0000.0001)                 3.341968103208270E+10,      /* J =  3 */
(PID.TID 0000.0001)                 4.168532893152940E+10,      /* J =  4 */
(PID.TID 0000.0001)                 4.909074590409593E+10,      /* J =  5 */
(PID.TID 0000.0001)                 5.581203765722643E+10,      /* J =  6 */
(PID.TID 0000.0001)                 6.193257577506788E+10,      /* J =  7 */
(PID.TID 0000.0001)                 6.748840226738273E+10,      /* J =  8 */
(PID.TID 0000.0001)                 7.248875782324815E+10,      /* J =  9 */
(PID.TID 0000.0001)                 7.692702995909871E+10,      /* J = 10 */
(PID.TID 0000.0001)                 8.078743937057304E+10,      /* J = 11 */
(PID.TID 0000.0001)                 8.404959656062837E+10,      /* J = 12 */
(PID.TID 0000.0001)                 8.669186205742538E+10,      /* J = 13 */
(PID.TID 0000.0001)                 8.869393350723613E+10,      /* J = 14 */
(PID.TID 0000.0001)                 9.003884657168852E+10,      /* J = 15 */
(PID.TID 0000.0001)     2 @  9.071447638299399E+10,             /* J = 16: 17 */
(PID.TID 0000.0001)                 9.003884657168852E+10,      /* J = 18 */
(PID.TID 0000.0001)                 8.869393350723613E+10,      /* J = 19 */
(PID.TID 0000.0001)                 8.669186205742538E+10,      /* J = 20 */
(PID.TID 0000.0001)                 8.404959656062837E+10,      /* J = 21 */
(PID.TID 0000.0001)                 8.078743937057304E+10,      /* J = 22 */
(PID.TID 0000.0001)                 7.692702995909871E+10,      /* J = 23 */
(PID.TID 0000.0001)                 7.248875782324815E+10,      /* J = 24 */
(PID.TID 0000.0001)                 6.748840226738273E+10,      /* J = 25 */
(PID.TID 0000.0001)                 6.193257577506788E+10,      /* J = 26 */
(PID.TID 0000.0001)                 5.581203765722643E+10,      /* J = 27 */
(PID.TID 0000.0001)                 4.909074590409593E+10,      /* J = 28 */
(PID.TID 0000.0001)                 4.168532893152940E+10,      /* J = 29 */
(PID.TID 0000.0001)                 3.341968103208270E+10,      /* J = 30 */
(PID.TID 0000.0001)                 2.390126200743558E+10,      /* J = 31 */
(PID.TID 0000.0001)                 1.216690346714270E+10       /* J = 32 */
(PID.TID 0000.0001)     ;
(PID.TID 0000.0001) rAs =  /* rAs(:,1,:,1) ( units: m^2 ) */
(PID.TID 0000.0001)                 1.216690346714270E+10,      /* I =  1 */
(PID.TID 0000.0001)                 2.390126200743558E+10,      /* I =  2 */
(PID.TID 0000.0001)                 3.341968103208270E+10,      /* I =  3 */
(PID.TID 0000.0001)      . . .
(PID.TID 0000.0001)                 8.869393350723613E+10,      /* I = 46 */
(PID.TID 0000.0001)                 9.003884657168852E+10,      /* I = 47 */
(PID.TID 0000.0001)                 9.071447638299399E+10,      /* I = 48 */
(PID.TID 0000.0001)                 9.071447638299399E+10,      /* I = 49 */
(PID.TID 0000.0001)                 9.003884657168852E+10,      /* I = 50 */
(PID.TID 0000.0001)                 8.869393350723613E+10,      /* I = 51 */
(PID.TID 0000.0001)      . . .
(PID.TID 0000.0001)                 3.341968103208270E+10,      /* I = 94 */
(PID.TID 0000.0001)                 2.390126200743558E+10,      /* I = 95 */
(PID.TID 0000.0001)                 1.216690346714270E+10,      /* I = 96 */
(PID.TID 0000.0001)                 1.216690346714270E+10,      /* I = 97 */
(PID.TID 0000.0001)                 2.390126200743558E+10,      /* I = 98 */
(PID.TID 0000.0001)                 3.341968103208270E+10,      /* I = 99 */
(PID.TID 0000.0001)      . . .
(PID.TID 0000.0001)                 8.869393350723613E+10,      /* I =142 */
(PID.TID 0000.0001)                 9.003884657168852E+10,      /* I =143 */
(PID.TID 0000.0001)                 9.071447638299399E+10,      /* I =144 */
(PID.TID 0000.0001)                 9.071447638299399E+10,      /* I =145 */
(PID.TID 0000.0001)                 9.003884657168852E+10,      /* I =146 */
(PID.TID 0000.0001)                 8.869393350723613E+10,      /* I =147 */
(PID.TID 0000.0001)      . . .
(PID.TID 0000.0001)                 3.341968103208270E+10,      /* I =190 */
(PID.TID 0000.0001)                 2.390126200743558E+10,      /* I =191 */
(PID.TID 0000.0001)                 1.216690346714270E+10       /* I =192 */
(PID.TID 0000.0001)     ;
(PID.TID 0000.0001) rAs =  /* rAs(1,:,1,:) ( units: m^2 ) */
(PID.TID 0000.0001)                 1.216690346714270E+10,      /* J =  1 */
(PID.TID 0000.0001)                 1.974052138506315E+10,      /* J =  2 */
(PID.TID 0000.0001)                 2.943712825252015E+10,      /* J =  3 */
(PID.TID 0000.0001)                 3.801790263324359E+10,      /* J =  4 */
(PID.TID 0000.0001)                 4.571243814189866E+10,      /* J =  5 */
(PID.TID 0000.0001)                 5.269930713599979E+10,      /* J =  6 */
(PID.TID 0000.0001)                 5.907428494299063E+10,      /* J =  7 */
(PID.TID 0000.0001)                 6.488320895111514E+10,      /* J =  8 */
(PID.TID 0000.0001)                 7.014205907741882E+10,      /* J =  9 */
(PID.TID 0000.0001)                 7.484854821847499E+10,      /* J = 10 */
(PID.TID 0000.0001)                 7.898934631431560E+10,      /* J = 11 */
(PID.TID 0000.0001)                 8.254500894894537E+10,      /* J = 12 */
(PID.TID 0000.0001)                 8.549360686473492E+10,      /* J = 13 */
(PID.TID 0000.0001)                 8.781353403175085E+10,      /* J = 14 */
(PID.TID 0000.0001)                 8.948571540392021E+10,      /* J = 15 */
(PID.TID 0000.0001)                 9.049530583086168E+10,      /* J = 16 */
(PID.TID 0000.0001)                 9.083293515008307E+10,      /* J = 17 */
(PID.TID 0000.0001)                 9.049530583087070E+10,      /* J = 18 */
(PID.TID 0000.0001)                 8.948571540391121E+10,      /* J = 19 */
(PID.TID 0000.0001)                 8.781353403174185E+10,      /* J = 20 */
(PID.TID 0000.0001)                 8.549360686467184E+10,      /* J = 21 */
(PID.TID 0000.0001)                 8.254500894890933E+10,      /* J = 22 */
(PID.TID 0000.0001)                 7.898934631434262E+10,      /* J = 23 */
(PID.TID 0000.0001)                 7.484854821844795E+10,      /* J = 24 */
(PID.TID 0000.0001)                 7.014205907742783E+10,      /* J = 25 */
(PID.TID 0000.0001)                 6.488320895111514E+10,      /* J = 26 */
(PID.TID 0000.0001)                 5.907428494299063E+10,      /* J = 27 */
(PID.TID 0000.0001)                 5.269930713599078E+10,      /* J = 28 */
(PID.TID 0000.0001)                 4.571243814190767E+10,      /* J = 29 */
(PID.TID 0000.0001)                 3.801790263325260E+10,      /* J = 30 */
(PID.TID 0000.0001)                 2.943712825251114E+10,      /* J = 31 */
(PID.TID 0000.0001)                 1.974052138509018E+10       /* J = 32 */
(PID.TID 0000.0001)     ;
(PID.TID 0000.0001) globalArea = /* Integrated horizontal Area (m^2) */
(PID.TID 0000.0001)                 5.099043637817220E+14
(PID.TID 0000.0001)     ;
(PID.TID 0000.0001) hasWetCSCorners = /* Domain contains CS corners (True/False) */
(PID.TID 0000.0001)                   T
(PID.TID 0000.0001)     ;
(PID.TID 0000.0001) // =======================================================
(PID.TID 0000.0001) // End of Model config. summary
(PID.TID 0000.0001) // =======================================================
(PID.TID 0000.0001) 
(PID.TID 0000.0001) == Packages configuration : Check & print summary ==
(PID.TID 0000.0001) 
(PID.TID 0000.0001) THSICE_CHECK: #define THSICE
(PID.TID 0000.0001) LAND_CHECK: #define ALLOW_LAND
(PID.TID 0000.0001) // ===================================
(PID.TID 0000.0001) // Land package parameters :
(PID.TID 0000.0001) // ===================================
(PID.TID 0000.0001) land_calc_grT = /* step forward ground Temp. on/off flag */
(PID.TID 0000.0001)                   T
(PID.TID 0000.0001)     ;
(PID.TID 0000.0001) land_calc_grW = /* step forward soil moiture on/off flag */
(PID.TID 0000.0001)                   T
(PID.TID 0000.0001)     ;
(PID.TID 0000.0001) land_impl_grT = /* solve ground temperature implicitly */
(PID.TID 0000.0001)                   T
(PID.TID 0000.0001)     ;
(PID.TID 0000.0001) land_calc_snow = /* step forward snow thickness */
(PID.TID 0000.0001)                   T
(PID.TID 0000.0001)     ;
(PID.TID 0000.0001) land_calc_alb = /* compute land+snow albedo */
(PID.TID 0000.0001)                   T
(PID.TID 0000.0001)     ;
(PID.TID 0000.0001) land_grT_iniFile = /* Initial ground-Temp Input-File */
(PID.TID 0000.0001)                 land_grT_ini.cpl.bin
(PID.TID 0000.0001)     ;
(PID.TID 0000.0001) land_grW_iniFile = /* Initial soil-Water Input-File */
(PID.TID 0000.0001)                 land_grW_ini.mn.bin
(PID.TID 0000.0001)     ;
(PID.TID 0000.0001) land_snow_iniFile= /* Initial snow thickness Input-File */
(PID.TID 0000.0001)                 land_grW_ini.mn.bin
(PID.TID 0000.0001)     ;
(PID.TID 0000.0001) land_deltaT = /* land model Time-Step (s) */
(PID.TID 0000.0001)                 4.500000000000000E+02
(PID.TID 0000.0001)     ;
(PID.TID 0000.0001) land_taveFreq = /* Frequency^-1 for time-Aver. output (s) */
(PID.TID 0000.0001)                 2.592000000000000E+06
(PID.TID 0000.0001)     ;
(PID.TID 0000.0001) land_diagFreq = /* Frequency^-1 for diagnostic output (s) */
(PID.TID 0000.0001)                 2.592000000000000E+06
(PID.TID 0000.0001)     ;
(PID.TID 0000.0001) land_monFreq = /* Frequency^-1 for monitor output (s) */
(PID.TID 0000.0001)                 2.592000000000000E+06
(PID.TID 0000.0001)     ;
(PID.TID 0000.0001) land_dzF = /* layer thickness ( m ) */
(PID.TID 0000.0001)                 1.000000000000000E-01,      /* K =  1 */
(PID.TID 0000.0001)                 4.000000000000000E+00       /* K =  2 */
(PID.TID 0000.0001)     ;
(PID.TID 0000.0001) land_rec_dzC= /* recip. vertical spacing (m-1) */
(PID.TID 0000.0001)                 2.000000000000000E+01,      /* K =  1 */
(PID.TID 0000.0001)                 4.878048780487805E-01       /* K =  2 */
(PID.TID 0000.0001)     ;
(PID.TID 0000.0001) land_timeave_mdsio = /* use MDSIO for Tave output */
(PID.TID 0000.0001)                   T
(PID.TID 0000.0001)     ;
(PID.TID 0000.0001) land_timeave_mnc = /* use MNC for Tave output */
(PID.TID 0000.0001)                   F
(PID.TID 0000.0001)     ;
(PID.TID 0000.0001) land_snapshot_mdsio = /* use MDSIO for snapshot output */
(PID.TID 0000.0001)                   T
(PID.TID 0000.0001)     ;
(PID.TID 0000.0001) land_snapshot_mnc = /* use MNC for snapshot output */
(PID.TID 0000.0001)                   F
(PID.TID 0000.0001)     ;
(PID.TID 0000.0001) land_mon_stdio = /* use STDOUT for monitor output */
(PID.TID 0000.0001)                   T
(PID.TID 0000.0001)     ;
(PID.TID 0000.0001) land_mon_mnc = /* use MNC for monitor output */
(PID.TID 0000.0001)                   F
(PID.TID 0000.0001)     ;
(PID.TID 0000.0001) land_pickup_write_mnc = /* use MNC for writing pickups */
(PID.TID 0000.0001)                   F
(PID.TID 0000.0001)     ;
(PID.TID 0000.0001) land_pickup_read_mnc = /* use MNC for reading pickups */
(PID.TID 0000.0001)                   F
(PID.TID 0000.0001)     ;
(PID.TID 0000.0001) land_grdLambda = /* Thermal conductivity of the ground (W/m/K)*/
(PID.TID 0000.0001)                 4.200000000000000E-01
(PID.TID 0000.0001)     ;
(PID.TID 0000.0001) land_heatCs = /* Heat capacity of dry soil (J/m3/K) */
(PID.TID 0000.0001)                 1.130000000000000E+06
(PID.TID 0000.0001)     ;
(PID.TID 0000.0001) land_CpWater = /* Heat capacity of water    (J/kg/K) */
(PID.TID 0000.0001)                 4.200000000000000E+03
(PID.TID 0000.0001)     ;
(PID.TID 0000.0001) land_wTauDiff = /* soil moisture diffusion time scale (s) */
(PID.TID 0000.0001)                 1.728000000000000E+05
(PID.TID 0000.0001)     ;
(PID.TID 0000.0001) land_waterCap = /* field capacity per meter of soil (1) */
(PID.TID 0000.0001)                 2.400000000000000E-01
(PID.TID 0000.0001)     ;
(PID.TID 0000.0001) land_fractRunOff= /* fraction of water in excess which run-off */
(PID.TID 0000.0001)                 5.000000000000000E-01
(PID.TID 0000.0001)     ;
(PID.TID 0000.0001) land_rhoLiqW = /* density of liquid water (kg/m3) */
(PID.TID 0000.0001)                 1.000000000000000E+03
(PID.TID 0000.0001)     ;
(PID.TID 0000.0001) land_rhoSnow = /* density of snow (kg/m3) */
(PID.TID 0000.0001)                 3.300000000000000E+02
(PID.TID 0000.0001)     ;
(PID.TID 0000.0001) land_Lfreez = /* Latent heat of freezing (J/kg) */
(PID.TID 0000.0001)                 3.340000000000000E+05
(PID.TID 0000.0001)     ;
(PID.TID 0000.0001) land_hMaxSnow = /* maximum snow-thickness (m) */
(PID.TID 0000.0001)                 1.000000000000000E+01
(PID.TID 0000.0001)     ;
(PID.TID 0000.0001) diffKsnow = /* thermal conductivity of snow (W/m/K) */
(PID.TID 0000.0001)                 3.000000000000000E-01
(PID.TID 0000.0001)     ;
(PID.TID 0000.0001) timeSnowAge = /* snow aging time scale   (s) */
(PID.TID 0000.0001)                 4.320000000000000E+06
(PID.TID 0000.0001)     ;
(PID.TID 0000.0001) hNewSnowAge = /* new snow thickness to refresh snow-age by 1/e */
(PID.TID 0000.0001)                 2.000000000000000E-03
(PID.TID 0000.0001)     ;
(PID.TID 0000.0001) albColdSnow = /* albedo of cold (=dry) new snow */
(PID.TID 0000.0001)                 8.500000000000000E-01
(PID.TID 0000.0001)     ;
(PID.TID 0000.0001) albWarmSnow = /* albedo of warm (=wet) new snow */
(PID.TID 0000.0001)                 7.000000000000000E-01
(PID.TID 0000.0001)     ;
(PID.TID 0000.0001) tempSnowAlbL = /* Temp. transition from ColdSnow to WarmSnow Alb. (oC) */
(PID.TID 0000.0001)                -1.000000000000000E+01
(PID.TID 0000.0001)     ;
(PID.TID 0000.0001) albOldSnow = /* albedo of old snow (snowAge >35.d)*/
(PID.TID 0000.0001)                 5.500000000000000E-01
(PID.TID 0000.0001)     ;
(PID.TID 0000.0001) hAlbSnow = /* snow depth for albedo transition */
(PID.TID 0000.0001)                 3.000000000000000E-01
(PID.TID 0000.0001)     ;
(PID.TID 0000.0001) // ===================================
(PID.TID 0000.0001) GAD_CHECK: #define ALLOW_GENERIC_ADVDIFF
(PID.TID 0000.0001) // =======================================================
(PID.TID 0000.0001) // Check Model config. (CONFIG_CHECK):
(PID.TID 0000.0001) // CONFIG_CHECK : Normal End
(PID.TID 0000.0001) // =======================================================
(PID.TID 0000.0001) 
(PID.TID 0000.0001) Start initial hydrostatic pressure computation
(PID.TID 0000.0001) Pressure is predetermined for buoyancyRelation ATMOSPHERIC
(PID.TID 0000.0001) 
(PID.TID 0000.0001)  MDS_READ_FIELD: opening global file: land_grT_ini.cpl.bin
(PID.TID 0000.0001)  MDS_READ_FIELD: opening global file: land_grW_ini.mn.bin
(PID.TID 0000.0001)  MDS_READ_FIELD: opening global file: land_snw_ini.cpl.bin
(PID.TID 0000.0001) // =======================================================
(PID.TID 0000.0001) // Model current state
(PID.TID 0000.0001) // =======================================================
(PID.TID 0000.0001) 
(PID.TID 0000.0001) // =======================================================
(PID.TID 0000.0001) // Begin MONITOR dynamic field statistics
(PID.TID 0000.0001) // =======================================================
(PID.TID 0000.0001) %MON time_tsnumber                =                     0
(PID.TID 0000.0001) %MON time_secondsf                =   0.0000000000000E+00
(PID.TID 0000.0001) %MON dynstat_eta_max              =   0.0000000000000E+00
(PID.TID 0000.0001) %MON dynstat_eta_min              =   0.0000000000000E+00
(PID.TID 0000.0001) %MON dynstat_eta_mean             =   0.0000000000000E+00
(PID.TID 0000.0001) %MON dynstat_eta_sd               =   0.0000000000000E+00
(PID.TID 0000.0001) %MON dynstat_eta_del2             =   0.0000000000000E+00
(PID.TID 0000.0001) %MON dynstat_uvel_max             =   0.0000000000000E+00
(PID.TID 0000.0001) %MON dynstat_uvel_min             =   0.0000000000000E+00
(PID.TID 0000.0001) %MON dynstat_uvel_mean            =   0.0000000000000E+00
(PID.TID 0000.0001) %MON dynstat_uvel_sd              =   0.0000000000000E+00
(PID.TID 0000.0001) %MON dynstat_uvel_del2            =   0.0000000000000E+00
(PID.TID 0000.0001) %MON dynstat_vvel_max             =   0.0000000000000E+00
(PID.TID 0000.0001) %MON dynstat_vvel_min             =   0.0000000000000E+00
(PID.TID 0000.0001) %MON dynstat_vvel_mean            =   0.0000000000000E+00
(PID.TID 0000.0001) %MON dynstat_vvel_sd              =   0.0000000000000E+00
(PID.TID 0000.0001) %MON dynstat_vvel_del2            =   0.0000000000000E+00
(PID.TID 0000.0001) %MON dynstat_wvel_max             =   0.0000000000000E+00
(PID.TID 0000.0001) %MON dynstat_wvel_min             =   0.0000000000000E+00
(PID.TID 0000.0001) %MON dynstat_wvel_mean            =   0.0000000000000E+00
(PID.TID 0000.0001) %MON dynstat_wvel_sd              =   0.0000000000000E+00
(PID.TID 0000.0001) %MON dynstat_wvel_del2            =   0.0000000000000E+00
(PID.TID 0000.0001) %MON dynstat_theta_max            =   4.3740000000000E+02
(PID.TID 0000.0001) %MON dynstat_theta_min            =   2.8960000000000E+02
(PID.TID 0000.0001) %MON dynstat_theta_mean           =   3.3171566851928E+02
(PID.TID 0000.0001) %MON dynstat_theta_sd             =   4.7418367738381E+01
(PID.TID 0000.0001) %MON dynstat_theta_del2           =   0.0000000000000E+00
(PID.TID 0000.0001) %MON dynstat_salt_max             =   0.0000000000000E+00
(PID.TID 0000.0001) %MON dynstat_salt_min             =   0.0000000000000E+00
(PID.TID 0000.0001) %MON dynstat_salt_mean            =   0.0000000000000E+00
(PID.TID 0000.0001) %MON dynstat_salt_sd              =   0.0000000000000E+00
(PID.TID 0000.0001) %MON dynstat_salt_del2            =   0.0000000000000E+00
(PID.TID 0000.0001) %MON trAdv_CFL_u_max              =   0.0000000000000E+00
(PID.TID 0000.0001) %MON trAdv_CFL_v_max              =   0.0000000000000E+00
(PID.TID 0000.0001) %MON trAdv_CFL_w_max              =   0.0000000000000E+00
(PID.TID 0000.0001) %MON advcfl_uvel_max              =   0.0000000000000E+00
(PID.TID 0000.0001) %MON advcfl_vvel_max              =   0.0000000000000E+00
(PID.TID 0000.0001) %MON advcfl_wvel_max              =   0.0000000000000E+00
(PID.TID 0000.0001) %MON advcfl_W_hf_max              =   0.0000000000000E+00
(PID.TID 0000.0001) %MON am_eta_mean                  =   0.0000000000000E+00
(PID.TID 0000.0001) %MON am_uZo_mean                  =   0.0000000000000E+00
(PID.TID 0000.0001) %MON am_tot_mean                  =   0.0000000000000E+00
(PID.TID 0000.0001) %MON pe_b_mean                    =   0.0000000000000E+00
(PID.TID 0000.0001) %MON ke_max                       =   0.0000000000000E+00
(PID.TID 0000.0001) %MON ke_mean                      =   0.0000000000000E+00
(PID.TID 0000.0001) %MON ke_vol                       =   4.9523908919847E+19
(PID.TID 0000.0001) %MON vort_r_min                   =   0.0000000000000E+00
(PID.TID 0000.0001) %MON vort_r_max                   =   0.0000000000000E+00
(PID.TID 0000.0001) %MON vort_a_mean                  =   6.7242814765318E-08
(PID.TID 0000.0001) %MON vort_a_sd                    =   8.3936822068631E-05
(PID.TID 0000.0001) %MON vort_p_mean                  =   6.8939448519602E-08
(PID.TID 0000.0001) %MON vort_p_sd                    =   9.1626513531368E-05
(PID.TID 0000.0001) %MON surfExpan_theta_mean         =   0.0000000000000E+00
(PID.TID 0000.0001) %MON surfExpan_salt_mean          =   0.0000000000000E+00
(PID.TID 0000.0001) %MON surfExpan_Heat_mean          =   0.0000000000000E+00
(PID.TID 0000.0001) %MON En_Budget_T2PE_mean          =   0.0000000000000E+00
(PID.TID 0000.0001) // =======================================================
(PID.TID 0000.0001) // End MONITOR dynamic field statistics
(PID.TID 0000.0001) // =======================================================
(PID.TID 0000.0001) // =======================================================
(PID.TID 0000.0001) // Begin MONITOR Land statistics
(PID.TID 0000.0001) // =======================================================
(PID.TID 0000.0001) %MON land_time_sec                =   0.0000000000000E+00
(PID.TID 0000.0001) %MON land_SnwH_ave_G              =   1.5327595968918E-01
(PID.TID 0000.0001) %MON land_SnwH_ave_S              =   5.5906277570341E-01
(PID.TID 0000.0001) %MON land_SnwH_ave_T              =   2.7405468051285E-07
(PID.TID 0000.0001) %MON land_SnwH_ave_N              =   1.2399418417812E-01
(PID.TID 0000.0001) %MON land_SnwH_max_S              =   1.0000000000000E+00
(PID.TID 0000.0001) %MON land_SnwH_max_T              =   7.7654719504950E-05
(PID.TID 0000.0001) %MON land_SnwH_max_N              =   1.0000000000000E+00
(PID.TID 0000.0001) %MON land_Tsrf_ave_G              =  -2.5815959216687E+00
(PID.TID 0000.0001) %MON land_Tsrf_ave_S              =  -3.3132697963695E+00
(PID.TID 0000.0001) %MON land_Tsrf_ave_T              =   2.0149199094728E+01
(PID.TID 0000.0001) %MON land_Tsrf_ave_N              =  -1.7523201785581E+01
(PID.TID 0000.0001) %MON land_Tsrf_min_S              =  -3.8985871813098E+01
(PID.TID 0000.0001) %MON land_Tsrf_min_T              =  -8.0316451094858E+00
(PID.TID 0000.0001) %MON land_Tsrf_min_N              =  -5.5018877502675E+01
(PID.TID 0000.0001) %MON land_Tsrf_max_S              =   3.3608904510445E+01
(PID.TID 0000.0001) %MON land_Tsrf_max_T              =   3.7568273139015E+01
(PID.TID 0000.0001) %MON land_Tsrf_max_N              =   1.5686208531239E+01
(PID.TID 0000.0001) %MON land_Tgr1_ave_G              =  -2.5815959216687E+00
(PID.TID 0000.0001) %MON land_Tgr1_ave_S              =  -3.3132697963695E+00
(PID.TID 0000.0001) %MON land_Tgr1_ave_T              =   2.0149199094728E+01
(PID.TID 0000.0001) %MON land_Tgr1_ave_N              =  -1.7523201785581E+01
(PID.TID 0000.0001) %MON land_Tgr1_min_S              =  -3.8985871813098E+01
(PID.TID 0000.0001) %MON land_Tgr1_min_T              =  -8.0316451094858E+00
(PID.TID 0000.0001) %MON land_Tgr1_min_N              =  -5.5018877502675E+01
(PID.TID 0000.0001) %MON land_Tgr1_max_S              =   3.3608904510445E+01
(PID.TID 0000.0001) %MON land_Tgr1_max_T              =   3.7568273139015E+01
(PID.TID 0000.0001) %MON land_Tgr1_max_N              =   1.5686208531239E+01
(PID.TID 0000.0001) %MON land_Tgr2_ave_G              =   4.2075844789702E+00
(PID.TID 0000.0001) %MON land_Tgr2_ave_S              =  -1.8731900381715E+01
(PID.TID 0000.0001) %MON land_Tgr2_ave_T              =   2.2013117275370E+01
(PID.TID 0000.0001) %MON land_Tgr2_ave_N              =  -2.4099755438272E-01
(PID.TID 0000.0001) %MON land_Tgr2_min_S              =  -6.4762296561906E+01
(PID.TID 0000.0001) %MON land_Tgr2_min_T              =  -9.7051070040243E+00
(PID.TID 0000.0001) %MON land_Tgr2_min_N              =  -4.0193619391069E+01
(PID.TID 0000.0001) %MON land_Tgr2_max_S              =   2.3360008819708E+01
(PID.TID 0000.0001) %MON land_Tgr2_max_T              =   3.1360925912704E+01
(PID.TID 0000.0001) %MON land_Tgr2_max_N              =   2.9833038898793E+01
(PID.TID 0000.0001) %MON land_TotEnerg_G              =  -6.2318014275423E+21
(PID.TID 0000.0001) %MON land_TotEnerg_S              =  -4.9893442833974E+21
(PID.TID 0000.0001) %MON land_TotEnerg_T              =   7.3640891470528E+21
(PID.TID 0000.0001) %MON land_TotEnerg_N              =  -8.6065462911976E+21
(PID.TID 0000.0001) %MON land_grdW_ave_G              =   4.8705004606900E-01
(PID.TID 0000.0001) %MON land_grdW_ave_S              =   3.0877764965169E-01
(PID.TID 0000.0001) %MON land_grdW_ave_T              =   5.6494425086260E-01
(PID.TID 0000.0001) %MON land_grdW_ave_N              =   4.9286506610416E-01
(PID.TID 0000.0001) %MON land_grdW_min_S              =   2.5944074829007E-02
(PID.TID 0000.0001) %MON land_grdW_min_T              =   0.0000000000000E+00
(PID.TID 0000.0001) %MON land_grdW_min_N              =   0.0000000000000E+00
(PID.TID 0000.0001) // =======================================================
(PID.TID 0000.0001) // End MONITOR Land statistics
(PID.TID 0000.0001) // =======================================================
(PID.TID 0000.0001) // =======================================================
(PID.TID 0000.0001) // Begin MONITOR Therm.SeaIce statistics
(PID.TID 0000.0001) // =======================================================
(PID.TID 0000.0001) %MON thSI_time_sec                =   0.0000000000000E+00
(PID.TID 0000.0001) %MON thSI_Ice_Area_G              =   0.0000000000000E+00
(PID.TID 0000.0001) %MON thSI_Ice_Area_S              =   0.0000000000000E+00
(PID.TID 0000.0001) %MON thSI_Ice_Area_N              =   0.0000000000000E+00
(PID.TID 0000.0001) %MON thSI_IceH_ave_G              =   0.0000000000000E+00
(PID.TID 0000.0001) %MON thSI_IceH_ave_S              =   0.0000000000000E+00
(PID.TID 0000.0001) %MON thSI_IceH_ave_N              =   0.0000000000000E+00
(PID.TID 0000.0001) %MON thSI_IceH_max_S              =   0.0000000000000E+00
(PID.TID 0000.0001) %MON thSI_IceH_max_N              =   0.0000000000000E+00
(PID.TID 0000.0001) %MON thSI_SnwH_ave_G              =   0.0000000000000E+00
(PID.TID 0000.0001) %MON thSI_SnwH_ave_S              =   0.0000000000000E+00
(PID.TID 0000.0001) %MON thSI_SnwH_ave_N              =   0.0000000000000E+00
(PID.TID 0000.0001) %MON thSI_SnwH_max_S              =   0.0000000000000E+00
(PID.TID 0000.0001) %MON thSI_SnwH_max_N              =   0.0000000000000E+00
(PID.TID 0000.0001) %MON thSI_Tsrf_ave_G              =   0.0000000000000E+00
(PID.TID 0000.0001) %MON thSI_Tsrf_ave_S              =   0.0000000000000E+00
(PID.TID 0000.0001) %MON thSI_Tsrf_ave_N              =   0.0000000000000E+00
(PID.TID 0000.0001) %MON thSI_Tsrf_min_S              =   0.0000000000000E+00
(PID.TID 0000.0001) %MON thSI_Tsrf_min_N              =   0.0000000000000E+00
(PID.TID 0000.0001) %MON thSI_Tsrf_max_S              =   0.0000000000000E+00
(PID.TID 0000.0001) %MON thSI_Tsrf_max_N              =   0.0000000000000E+00
(PID.TID 0000.0001) %MON thSI_Tic1_ave_G              =   0.0000000000000E+00
(PID.TID 0000.0001) %MON thSI_Tic1_ave_S              =   0.0000000000000E+00
(PID.TID 0000.0001) %MON thSI_Tic1_ave_N              =   0.0000000000000E+00
(PID.TID 0000.0001) %MON thSI_Tic1_min_S              =   0.0000000000000E+00
(PID.TID 0000.0001) %MON thSI_Tic1_min_N              =   0.0000000000000E+00
(PID.TID 0000.0001) %MON thSI_Tic1_max_S              =   0.0000000000000E+00
(PID.TID 0000.0001) %MON thSI_Tic1_max_N              =   0.0000000000000E+00
(PID.TID 0000.0001) %MON thSI_Tic2_ave_G              =   0.0000000000000E+00
(PID.TID 0000.0001) %MON thSI_Tic2_ave_S              =   0.0000000000000E+00
(PID.TID 0000.0001) %MON thSI_Tic2_ave_N              =   0.0000000000000E+00
(PID.TID 0000.0001) %MON thSI_Tic2_min_S              =   0.0000000000000E+00
(PID.TID 0000.0001) %MON thSI_Tic2_min_N              =   0.0000000000000E+00
(PID.TID 0000.0001) %MON thSI_Tic2_max_S              =   0.0000000000000E+00
(PID.TID 0000.0001) %MON thSI_Tic2_max_N              =   0.0000000000000E+00
(PID.TID 0000.0001) %MON thSI_TotEnerg_G              =  -0.0000000000000E+00
(PID.TID 0000.0001) // =======================================================
(PID.TID 0000.0001) // End MONITOR Therm.SeaIce statistics
(PID.TID 0000.0001) // =======================================================
(PID.TID 0000.0001)  MDS_READ_FIELD: opening global file: albedo_cs32.bin
(PID.TID 0000.0001)  MDS_READ_FIELD: opening global file: vegetFrc.cpl_FM.bin
(PID.TID 0000.0001)  MDS_READ_FIELD: opening global file: seaSurfT.cpl_FM.bin
(PID.TID 0000.0001)  MDS_READ_FIELD: opening global file: seaSurfT.cpl_FM.bin
(PID.TID 0000.0001)  MDS_READ_FIELD: opening global file: lndSurfT.cpl_FM.bin
(PID.TID 0000.0001)  MDS_READ_FIELD: opening global file: lndSurfT.cpl_FM.bin
(PID.TID 0000.0001)  MDS_READ_FIELD: opening global file: seaIce.cpl3FM.bin
(PID.TID 0000.0001)  MDS_READ_FIELD: opening global file: seaIce.cpl3FM.bin
(PID.TID 0000.0001)  MDS_READ_FIELD: opening global file: snowDepth.cpl_FM.bin
(PID.TID 0000.0001)  MDS_READ_FIELD: opening global file: snowDepth.cpl_FM.bin
(PID.TID 0000.0001)  MDS_READ_FIELD: opening global file: soilMoist.cpl_FM.bin
(PID.TID 0000.0001)  MDS_READ_FIELD: opening global file: soilMoist.cpl_FM.bin
(PID.TID 0000.0001)  MDS_READ_FIELD: opening global file: soilMoist.cpl_FM.bin
(PID.TID 0000.0001)  MDS_READ_FIELD: opening global file: soilMoist.cpl_FM.bin
(PID.TID 0000.0001)   Exporting atmospheric surf fluxes at iter=         0
(PID.TID 0000.0001)   Importing  oceanic surface fields at iter=         0
(PID.TID 0000.0001) SOLVE_FOR_PRESSURE: putPmEinXvector =    F
 cg2d: Sum(rhs),rhsMax =  -5.79802872380242E-12  4.56406615217961E+03
(PID.TID 0000.0001)      cg2d_init_res =   2.69435642942126E+04
(PID.TID 0000.0001)      cg2d_iters(min,last) =      -1      16
(PID.TID 0000.0001)      cg2d_last_res =   1.02964652237669E-10
(PID.TID 0000.0001) // =======================================================
(PID.TID 0000.0001) // Begin MONITOR dynamic field statistics
(PID.TID 0000.0001) // =======================================================
(PID.TID 0000.0001) %MON time_tsnumber                =                     1
(PID.TID 0000.0001) %MON time_secondsf                =   4.5000000000000E+02
(PID.TID 0000.0001) %MON dynstat_eta_max              =   5.0126275000125E+02
(PID.TID 0000.0001) %MON dynstat_eta_min              =  -4.3379872426445E+02
(PID.TID 0000.0001) %MON dynstat_eta_mean             =   1.5963777873226E-16
(PID.TID 0000.0001) %MON dynstat_eta_sd               =   4.9434200776663E+01
(PID.TID 0000.0001) %MON dynstat_eta_del2             =   1.6777176510994E+00
(PID.TID 0000.0001) %MON dynstat_uvel_max             =   3.5050330571859E+00
(PID.TID 0000.0001) %MON dynstat_uvel_min             =  -2.8290208018706E+00
(PID.TID 0000.0001) %MON dynstat_uvel_mean            =  -8.6292684982432E-04
(PID.TID 0000.0001) %MON dynstat_uvel_sd              =   2.4016304516424E-01
(PID.TID 0000.0001) %MON dynstat_uvel_del2            =   2.0543318376510E-03
(PID.TID 0000.0001) %MON dynstat_vvel_max             =   3.6157626389765E+00
(PID.TID 0000.0001) %MON dynstat_vvel_min             =  -3.9171448519691E+00
(PID.TID 0000.0001) %MON dynstat_vvel_mean            =   1.0771995433407E-03
(PID.TID 0000.0001) %MON dynstat_vvel_sd              =   2.3236707519739E-01
(PID.TID 0000.0001) %MON dynstat_vvel_del2            =   2.2482648375913E-03
(PID.TID 0000.0001) %MON dynstat_wvel_max             =   4.7863246796719E-02
(PID.TID 0000.0001) %MON dynstat_wvel_min             =  -3.2571113815568E-01
(PID.TID 0000.0001) %MON dynstat_wvel_mean            =  -1.2649136710238E-03
(PID.TID 0000.0001) %MON dynstat_wvel_sd              =   1.0365742260025E-02
(PID.TID 0000.0001) %MON dynstat_wvel_del2            =   1.1926677284460E-04
(PID.TID 0000.0001) %MON dynstat_theta_max            =   4.3742467645505E+02
(PID.TID 0000.0001) %MON dynstat_theta_min            =   2.8934441045130E+02
(PID.TID 0000.0001) %MON dynstat_theta_mean           =   3.3171675642820E+02
(PID.TID 0000.0001) %MON dynstat_theta_sd             =   4.7417135661157E+01
(PID.TID 0000.0001) %MON dynstat_theta_del2           =   1.3483541127136E-04
(PID.TID 0000.0001) %MON dynstat_salt_max             =   4.8304031265066E-01
(PID.TID 0000.0001) %MON dynstat_salt_min             =  -3.6208180243339E-03
(PID.TID 0000.0001) %MON dynstat_salt_mean            =   4.0232673264473E-03
(PID.TID 0000.0001) %MON dynstat_salt_sd              =   1.7712462349260E-02
(PID.TID 0000.0001) %MON dynstat_salt_del2            =   1.0078076659287E-04
(PID.TID 0000.0001) %MON trAdv_CFL_u_max              =   5.0698683118828E-03
(PID.TID 0000.0001) %MON trAdv_CFL_v_max              =   5.6084227620920E-03
(PID.TID 0000.0001) %MON trAdv_CFL_w_max              =   6.6802535151774E-03
(PID.TID 0000.0001) %MON advcfl_uvel_max              =   5.0314489801751E-03
(PID.TID 0000.0001) %MON advcfl_vvel_max              =   5.5715472353764E-03
(PID.TID 0000.0001) %MON advcfl_wvel_max              =   5.3298186243656E-03
(PID.TID 0000.0001) %MON advcfl_W_hf_max              =   6.6802535151774E-03
(PID.TID 0000.0001) %MON am_eta_mean                  =   0.0000000000000E+00
(PID.TID 0000.0001) %MON am_uZo_mean                  =  -4.5570080907306E+06
(PID.TID 0000.0001) %MON am_tot_mean                  =  -4.5570080907306E+06
(PID.TID 0000.0001) %MON pe_b_mean                    =  -1.0794436543107E-01
(PID.TID 0000.0001) %MON ke_max                       =   6.1693781199338E+00
(PID.TID 0000.0001) %MON ke_mean                      =   5.5508143602989E-02
(PID.TID 0000.0001) %MON ke_vol                       =   4.9523908919847E+19
(PID.TID 0000.0001) %MON vort_r_min                   =  -9.4915373902207E-06
(PID.TID 0000.0001) %MON vort_r_max                   =   7.5335333512184E-06
(PID.TID 0000.0001) %MON vort_a_mean                  =   6.7242814765326E-08
(PID.TID 0000.0001) %MON vort_a_sd                    =   8.3936940887348E-05
(PID.TID 0000.0001) %MON vort_p_mean                  =   6.8939448519610E-08
(PID.TID 0000.0001) %MON vort_p_sd                    =   9.1622236718465E-05
(PID.TID 0000.0001) %MON surfExpan_theta_mean         =   1.2017470616148E-01
(PID.TID 0000.0001) %MON surfExpan_salt_mean          =   8.7340397801968E-07
(PID.TID 0000.0001) %MON surfExpan_Heat_mean          =  -9.8622054141029E+00
(PID.TID 0000.0001) %MON En_Budget_T2PE_mean          =   1.8815995746453E+01
(PID.TID 0000.0001) // =======================================================
(PID.TID 0000.0001) // End MONITOR dynamic field statistics
(PID.TID 0000.0001) // =======================================================
(PID.TID 0000.0001) // =======================================================
(PID.TID 0000.0001) // Begin MONITOR Land statistics
(PID.TID 0000.0001) // =======================================================
(PID.TID 0000.0001) %MON land_time_sec                =   4.5000000000000E+02
(PID.TID 0000.0001) %MON land_SnwH_ave_G              =   1.5324899418271E-01
(PID.TID 0000.0001) %MON land_SnwH_ave_S              =   5.5906218925101E-01
(PID.TID 0000.0001) %MON land_SnwH_ave_T              =   0.0000000000000E+00
(PID.TID 0000.0001) %MON land_SnwH_ave_N              =   1.2394083770072E-01
(PID.TID 0000.0001) %MON land_SnwH_max_S              =   9.9999994790628E-01
(PID.TID 0000.0001) %MON land_SnwH_max_T              =   0.0000000000000E+00
(PID.TID 0000.0001) %MON land_SnwH_max_N              =   9.9999994052276E-01
(PID.TID 0000.0001) %MON LAND : Area= 1.460176263E+14 ; Lat sep= -24.00  24.00
(PID.TID 0000.0001) %MON LAND : LatA= 2.377676559E+13 4.894489218E+13 7.329596851E+13
(PID.TID 0000.0001) %MON land_Tsrf_ave_G              =  -4.5018097153331E+00
(PID.TID 0000.0001) %MON land_Tsrf_ave_S              =  -4.8502891206834E+00
(PID.TID 0000.0001) %MON land_Tsrf_ave_T              =   1.8967115730433E+01
(PID.TID 0000.0001) %MON land_Tsrf_ave_N              =  -2.0060623322950E+01
(PID.TID 0000.0001) %MON land_Tsrf_min_S              =  -3.4780031503666E+01
(PID.TID 0000.0001) %MON land_Tsrf_min_T              =  -7.7790761348767E+00
(PID.TID 0000.0001) %MON land_Tsrf_min_N              =  -5.2204837440254E+01
(PID.TID 0000.0001) %MON land_Tsrf_max_S              =   3.1949330087513E+01
(PID.TID 0000.0001) %MON land_Tsrf_max_T              =   3.5750083102673E+01
(PID.TID 0000.0001) %MON land_Tsrf_max_N              =   1.5372300088674E+01
(PID.TID 0000.0001) %MON land_Tgr1_ave_G              =  -3.1124927886792E+00
(PID.TID 0000.0001) %MON land_Tgr1_ave_S              =  -3.7813957895996E+00
(PID.TID 0000.0001) %MON land_Tgr1_ave_T              =   1.8967115730433E+01
(PID.TID 0000.0001) %MON land_Tgr1_ave_N              =  -1.7639617949757E+01
(PID.TID 0000.0001) %MON land_Tgr1_min_S              =  -3.8998391445355E+01
(PID.TID 0000.0001) %MON land_Tgr1_min_T              =  -7.7790761348767E+00
(PID.TID 0000.0001) %MON land_Tgr1_min_N              =  -5.5006030742765E+01
(PID.TID 0000.0001) %MON land_Tgr1_max_S              =   3.1949330087513E+01
(PID.TID 0000.0001) %MON land_Tgr1_max_T              =   3.5750083102673E+01
(PID.TID 0000.0001) %MON land_Tgr1_max_N              =   1.5372300088674E+01
(PID.TID 0000.0001) %MON land_Tgr2_ave_G              =   4.2074719607241E+00
(PID.TID 0000.0001) %MON land_Tgr2_ave_S              =  -1.8731652795813E+01
(PID.TID 0000.0001) %MON land_Tgr2_ave_T              =   2.2013064794749E+01
(PID.TID 0000.0001) %MON land_Tgr2_ave_N              =  -2.4126697958059E-01
(PID.TID 0000.0001) %MON land_Tgr2_min_S              =  -6.4761861869106E+01
(PID.TID 0000.0001) %MON land_Tgr2_min_T              =  -9.7050826670751E+00
(PID.TID 0000.0001) %MON land_Tgr2_min_N              =  -4.0193860864683E+01
(PID.TID 0000.0001) %MON land_Tgr2_max_S              =   2.3360154776443E+01
(PID.TID 0000.0001) %MON land_Tgr2_max_T              =   3.1360681955355E+01
(PID.TID 0000.0001) %MON land_Tgr2_max_N              =   2.9832408494537E+01
(PID.TID 0000.0001) %MON land_TotEnerg_G              =  -6.2449420214312E+21
(PID.TID 0000.0001) %MON land_TotEnerg_S              =  -4.9909809342333E+21
(PID.TID 0000.0001) %MON land_TotEnerg_T              =   7.3535863970854E+21
(PID.TID 0000.0001) %MON land_TotEnerg_N              =  -8.6075474842833E+21
(PID.TID 0000.0001) %MON land_grdW_ave_G              =   4.8703721222978E-01
(PID.TID 0000.0001) %MON land_grdW_ave_S              =   3.0876199363048E-01
(PID.TID 0000.0001) %MON land_grdW_ave_T              =   5.6488813559401E-01
(PID.TID 0000.0001) %MON land_grdW_ave_N              =   4.9288204982923E-01
(PID.TID 0000.0001) %MON land_grdW_min_S              =   2.5934444940682E-02
(PID.TID 0000.0001) %MON land_grdW_min_T              =   0.0000000000000E+00
(PID.TID 0000.0001) %MON land_grdW_min_N              =   0.0000000000000E+00
(PID.TID 0000.0001) // =======================================================
(PID.TID 0000.0001) // End MONITOR Land statistics
(PID.TID 0000.0001) // =======================================================
(PID.TID 0000.0001) // =======================================================
(PID.TID 0000.0001) // Begin MONITOR Therm.SeaIce statistics
(PID.TID 0000.0001) // =======================================================
(PID.TID 0000.0001) %MON thSI_time_sec                =   4.5000000000000E+02
(PID.TID 0000.0001) %MON thSI_Ice_Area_G              =   1.6321362239017E+10
(PID.TID 0000.0001) %MON thSI_Ice_Area_S              =   0.0000000000000E+00
(PID.TID 0000.0001) %MON thSI_Ice_Area_N              =   1.6321362239017E+10
(PID.TID 0000.0001) %MON thSI_IceH_ave_G              =   9.0201168668972E-02
(PID.TID 0000.0001) %MON thSI_IceH_ave_S              =   0.0000000000000E+00
(PID.TID 0000.0001) %MON thSI_IceH_ave_N              =   9.0201168668972E-02
(PID.TID 0000.0001) %MON thSI_IceH_max_S              =   0.0000000000000E+00
(PID.TID 0000.0001) %MON thSI_IceH_max_N              =   1.0000000000000E-01
(PID.TID 0000.0001) %MON thSI_SnwH_ave_G              =   0.0000000000000E+00
(PID.TID 0000.0001) %MON thSI_SnwH_ave_S              =   0.0000000000000E+00
(PID.TID 0000.0001) %MON thSI_SnwH_ave_N              =   0.0000000000000E+00
(PID.TID 0000.0001) %MON thSI_SnwH_max_S              =   0.0000000000000E+00
(PID.TID 0000.0001) %MON thSI_SnwH_max_N              =   0.0000000000000E+00
(PID.TID 0000.0001) %MON thSI_Tsrf_ave_G              =  -1.6672207727980E+00
(PID.TID 0000.0001) %MON thSI_Tsrf_ave_S              =   0.0000000000000E+00
(PID.TID 0000.0001) %MON thSI_Tsrf_ave_N              =  -1.6672207727980E+00
(PID.TID 0000.0001) %MON thSI_Tsrf_min_S              =   0.0000000000000E+00
(PID.TID 0000.0001) %MON thSI_Tsrf_min_N              =  -1.7019828369658E+00
(PID.TID 0000.0001) %MON thSI_Tsrf_max_S              =   0.0000000000000E+00
(PID.TID 0000.0001) %MON thSI_Tsrf_max_N              =  -1.6162307215484E+00
(PID.TID 0000.0001) %MON thSI_Tic1_ave_G              =  -1.6654148959328E+00
(PID.TID 0000.0001) %MON thSI_Tic1_ave_S              =   0.0000000000000E+00
(PID.TID 0000.0001) %MON thSI_Tic1_ave_N              =  -1.6654148959328E+00
(PID.TID 0000.0001) %MON thSI_Tic1_min_S              =   0.0000000000000E+00
(PID.TID 0000.0001) %MON thSI_Tic1_min_N              =  -1.7019828369658E+00
(PID.TID 0000.0001) %MON thSI_Tic1_max_S              =   0.0000000000000E+00
(PID.TID 0000.0001) %MON thSI_Tic1_max_N              =  -1.6162307215484E+00
(PID.TID 0000.0001) %MON thSI_Tic2_ave_G              =  -1.6654148959328E+00
(PID.TID 0000.0001) %MON thSI_Tic2_ave_S              =   0.0000000000000E+00
(PID.TID 0000.0001) %MON thSI_Tic2_ave_N              =  -1.6654148959328E+00
(PID.TID 0000.0001) %MON thSI_Tic2_min_S              =   0.0000000000000E+00
(PID.TID 0000.0001) %MON thSI_Tic2_min_N              =  -1.7019828369658E+00
(PID.TID 0000.0001) %MON thSI_Tic2_max_S              =   0.0000000000000E+00
(PID.TID 0000.0001) %MON thSI_Tic2_max_N              =  -1.6162307215484E+00
(PID.TID 0000.0001) %MON thSI_TotEnerg_G              =  -4.4008237021629E+17
(PID.TID 0000.0001) // =======================================================
(PID.TID 0000.0001) // End MONITOR Therm.SeaIce statistics
(PID.TID 0000.0001) // =======================================================
 cg2d: Sum(rhs),rhsMax =  -2.09752215596382E-11  9.41231701515117E+03
(PID.TID 0000.0001)      cg2d_init_res =   3.37277889096186E+04
(PID.TID 0000.0001)      cg2d_iters(min,last) =      -1      17
(PID.TID 0000.0001)      cg2d_last_res =   1.29071009762194E-11
(PID.TID 0000.0001) // =======================================================
(PID.TID 0000.0001) // Begin MONITOR dynamic field statistics
(PID.TID 0000.0001) // =======================================================
(PID.TID 0000.0001) %MON time_tsnumber                =                     2
(PID.TID 0000.0001) %MON time_secondsf                =   9.0000000000000E+02
(PID.TID 0000.0001) %MON dynstat_eta_max              =   1.0784500504386E+03
(PID.TID 0000.0001) %MON dynstat_eta_min              =  -1.0659070389690E+03
(PID.TID 0000.0001) %MON dynstat_eta_mean             =  -4.8636571407371E-16
(PID.TID 0000.0001) %MON dynstat_eta_sd               =   1.1744616029067E+02
(PID.TID 0000.0001) %MON dynstat_eta_del2             =   3.5374047281187E+00
(PID.TID 0000.0001) %MON dynstat_uvel_max             =   5.5655102734996E+00
(PID.TID 0000.0001) %MON dynstat_uvel_min             =  -4.9458818914115E+00
(PID.TID 0000.0001) %MON dynstat_uvel_mean            =  -1.7269663964618E-03
(PID.TID 0000.0001) %MON dynstat_uvel_sd              =   4.1328664317715E-01
(PID.TID 0000.0001) %MON dynstat_uvel_del2            =   2.5827134896432E-03
(PID.TID 0000.0001) %MON dynstat_vvel_max             =   5.9318022750969E+00
(PID.TID 0000.0001) %MON dynstat_vvel_min             =  -6.7152694940655E+00
(PID.TID 0000.0001) %MON dynstat_vvel_mean            =   2.2414008321639E-03
(PID.TID 0000.0001) %MON dynstat_vvel_sd              =   3.9047815207370E-01
(PID.TID 0000.0001) %MON dynstat_vvel_del2            =   2.8461602756140E-03
(PID.TID 0000.0001) %MON dynstat_wvel_max             =   6.1279222237505E-02
(PID.TID 0000.0001) %MON dynstat_wvel_min             =  -5.0801823340459E-01
(PID.TID 0000.0001) %MON dynstat_wvel_mean            =  -2.0603094012709E-03
(PID.TID 0000.0001) %MON dynstat_wvel_sd              =   1.6042043694151E-02
(PID.TID 0000.0001) %MON dynstat_wvel_del2            =   1.6922459671865E-04
(PID.TID 0000.0001) %MON dynstat_theta_max            =   4.3747894585594E+02
(PID.TID 0000.0001) %MON dynstat_theta_min            =   2.8908988121070E+02
(PID.TID 0000.0001) %MON dynstat_theta_mean           =   3.3171700468830E+02
(PID.TID 0000.0001) %MON dynstat_theta_sd             =   4.7416623730957E+01
(PID.TID 0000.0001) %MON dynstat_theta_del2           =   2.5734663138622E-04
(PID.TID 0000.0001) %MON dynstat_salt_max             =   9.1942980326593E-01
(PID.TID 0000.0001) %MON dynstat_salt_min             =  -2.9649722358353E-03
(PID.TID 0000.0001) %MON dynstat_salt_mean            =   7.9885101262290E-03
(PID.TID 0000.0001) %MON dynstat_salt_sd              =   3.4946289263747E-02
(PID.TID 0000.0001) %MON dynstat_salt_del2            =   1.9124491426170E-04
(PID.TID 0000.0001) %MON trAdv_CFL_u_max              =   8.0803616258097E-03
(PID.TID 0000.0001) %MON trAdv_CFL_v_max              =   9.5756281627621E-03
(PID.TID 0000.0001) %MON trAdv_CFL_w_max              =   1.0442580869621E-02
(PID.TID 0000.0001) %MON advcfl_uvel_max              =   7.9892487553987E-03
(PID.TID 0000.0001) %MON advcfl_vvel_max              =   9.5514571450325E-03
(PID.TID 0000.0001) %MON advcfl_wvel_max              =   8.3130256375297E-03
(PID.TID 0000.0001) %MON advcfl_W_hf_max              =   1.0442580869621E-02
(PID.TID 0000.0001) %MON am_eta_mean                  =  -4.4782454493304E+07
(PID.TID 0000.0001) %MON am_uZo_mean                  =   3.6056314942580E+07
(PID.TID 0000.0001) %MON am_tot_mean                  =  -8.7261395507238E+06
(PID.TID 0000.0001) %MON pe_b_mean                    =  -2.4455126846998E-01
(PID.TID 0000.0001) %MON ke_max                       =   1.6400981599819E+01
(PID.TID 0000.0001) %MON ke_mean                      =   1.6069076141042E-01
(PID.TID 0000.0001) %MON ke_vol                       =   4.9523908919847E+19
(PID.TID 0000.0001) %MON vort_r_min                   =  -1.6528722995744E-05
(PID.TID 0000.0001) %MON vort_r_max                   =   1.1202475321423E-05
(PID.TID 0000.0001) %MON vort_a_mean                  =   6.7242814765244E-08
(PID.TID 0000.0001) %MON vort_a_sd                    =   8.3937549866046E-05
(PID.TID 0000.0001) %MON vort_p_mean                  =   6.8939448367573E-08
(PID.TID 0000.0001) %MON vort_p_sd                    =   9.1637616144273E-05
(PID.TID 0000.0001) %MON surfExpan_theta_mean         =   1.9677560823649E-01
(PID.TID 0000.0001) %MON surfExpan_salt_mean          =   1.6711136412995E-06
(PID.TID 0000.0001) %MON surfExpan_Heat_mean          =  -1.6123424869845E+01
(PID.TID 0000.0001) %MON En_Budget_T2PE_mean          =   3.0760419786871E+01
(PID.TID 0000.0001) // =======================================================
(PID.TID 0000.0001) // End MONITOR dynamic field statistics
(PID.TID 0000.0001) // =======================================================
(PID.TID 0000.0001) // =======================================================
(PID.TID 0000.0001) // Begin MONITOR Land statistics
(PID.TID 0000.0001) // =======================================================
(PID.TID 0000.0001) %MON land_time_sec                =   9.0000000000000E+02
(PID.TID 0000.0001) %MON land_SnwH_ave_G              =   1.5324757292587E-01
(PID.TID 0000.0001) %MON land_SnwH_ave_S              =   5.5906150812488E-01
(PID.TID 0000.0001) %MON land_SnwH_ave_T              =   0.0000000000000E+00
(PID.TID 0000.0001) %MON land_SnwH_ave_N              =   1.2393822727646E-01
(PID.TID 0000.0001) %MON land_SnwH_max_S              =   9.9999903098904E-01
(PID.TID 0000.0001) %MON land_SnwH_max_T              =   0.0000000000000E+00
(PID.TID 0000.0001) %MON land_SnwH_max_N              =   9.9999987351522E-01
(PID.TID 0000.0001) %MON land_Tsrf_ave_G              =  -5.0652178784910E+00
(PID.TID 0000.0001) %MON land_Tsrf_ave_S              =  -5.5025815205589E+00
(PID.TID 0000.0001) %MON land_Tsrf_ave_T              =   1.7949616543267E+01
(PID.TID 0000.0001) %MON land_Tsrf_ave_N              =  -2.0291969350053E+01
(PID.TID 0000.0001) %MON land_Tsrf_min_S              =  -3.4769221382365E+01
(PID.TID 0000.0001) %MON land_Tsrf_min_T              =  -7.5299692347550E+00
(PID.TID 0000.0001) %MON land_Tsrf_min_N              =  -5.1747790152591E+01
(PID.TID 0000.0001) %MON land_Tsrf_max_S              =   3.0527153706392E+01
(PID.TID 0000.0001) %MON land_Tsrf_max_T              =   3.4123833338626E+01
(PID.TID 0000.0001) %MON land_Tsrf_max_N              =   1.4715839322201E+01
(PID.TID 0000.0001) %MON land_Tgr1_ave_G              =  -3.5648512817816E+00
(PID.TID 0000.0001) %MON land_Tgr1_ave_S              =  -4.1877865047505E+00
(PID.TID 0000.0001) %MON land_Tgr1_ave_T              =   1.7949616543267E+01
(PID.TID 0000.0001) %MON land_Tgr1_ave_N              =  -1.7729503774949E+01
(PID.TID 0000.0001) %MON land_Tgr1_min_S              =  -3.9010895124444E+01
(PID.TID 0000.0001) %MON land_Tgr1_min_T              =  -7.5299692347550E+00
(PID.TID 0000.0001) %MON land_Tgr1_min_N              =  -5.4992760177706E+01
(PID.TID 0000.0001) %MON land_Tgr1_max_S              =   3.0527153706392E+01
(PID.TID 0000.0001) %MON land_Tgr1_max_T              =   3.4123833338626E+01
(PID.TID 0000.0001) %MON land_Tgr1_max_N              =   1.4715839322201E+01
(PID.TID 0000.0001) %MON land_Tgr2_ave_G              =   4.2073557609052E+00
(PID.TID 0000.0001) %MON land_Tgr2_ave_S              =  -1.8731411666346E+01
(PID.TID 0000.0001) %MON land_Tgr2_ave_T              =   2.2012996600240E+01
(PID.TID 0000.0001) %MON land_Tgr2_ave_N              =  -2.4153115137642E-01
(PID.TID 0000.0001) %MON land_Tgr2_min_S              =  -6.4761427409520E+01
(PID.TID 0000.0001) %MON land_Tgr2_min_T              =  -9.7050551833814E+00
(PID.TID 0000.0001) %MON land_Tgr2_min_N              =  -4.0194102085193E+01
(PID.TID 0000.0001) %MON land_Tgr2_max_S              =   2.3360276077200E+01
(PID.TID 0000.0001) %MON land_Tgr2_max_T              =   3.1360419806704E+01
(PID.TID 0000.0001) %MON land_Tgr2_max_N              =   2.9832066099824E+01
(PID.TID 0000.0001) %MON land_TotEnerg_G              =  -6.2564655652663E+21
(PID.TID 0000.0001) %MON land_TotEnerg_S              =  -4.9923904002872E+21
(PID.TID 0000.0001) %MON land_TotEnerg_T              =   7.3445977914945E+21
(PID.TID 0000.0001) %MON land_TotEnerg_N              =  -8.6086729564735E+21
(PID.TID 0000.0001) %MON land_grdW_ave_G              =   4.8701737295015E-01
(PID.TID 0000.0001) %MON land_grdW_ave_S              =   3.0874743052211E-01
(PID.TID 0000.0001) %MON land_grdW_ave_T              =   5.6483651105318E-01
(PID.TID 0000.0001) %MON land_grdW_ave_N              =   4.9288172425441E-01
(PID.TID 0000.0001) %MON land_grdW_min_S              =   2.5938832289836E-02
(PID.TID 0000.0001) %MON land_grdW_min_T              =   0.0000000000000E+00
(PID.TID 0000.0001) %MON land_grdW_min_N              =   0.0000000000000E+00
(PID.TID 0000.0001) // =======================================================
(PID.TID 0000.0001) // End MONITOR Land statistics
(PID.TID 0000.0001) // =======================================================
(PID.TID 0000.0001) // =======================================================
(PID.TID 0000.0001) // Begin MONITOR Therm.SeaIce statistics
(PID.TID 0000.0001) // =======================================================
(PID.TID 0000.0001) %MON thSI_time_sec                =   9.0000000000000E+02
(PID.TID 0000.0001) %MON thSI_Ice_Area_G              =   3.1862052507039E+10
(PID.TID 0000.0001) %MON thSI_Ice_Area_S              =   0.0000000000000E+00
(PID.TID 0000.0001) %MON thSI_Ice_Area_N              =   3.1862052507039E+10
(PID.TID 0000.0001) %MON thSI_IceH_ave_G              =   9.2253074460292E-02
(PID.TID 0000.0001) %MON thSI_IceH_ave_S              =   0.0000000000000E+00
(PID.TID 0000.0001) %MON thSI_IceH_ave_N              =   9.2253074460292E-02
(PID.TID 0000.0001) %MON thSI_IceH_max_S              =   0.0000000000000E+00
(PID.TID 0000.0001) %MON thSI_IceH_max_N              =   1.0298625643839E-01
(PID.TID 0000.0001) %MON thSI_SnwH_ave_G              =   0.0000000000000E+00
(PID.TID 0000.0001) %MON thSI_SnwH_ave_S              =   0.0000000000000E+00
(PID.TID 0000.0001) %MON thSI_SnwH_ave_N              =   0.0000000000000E+00
(PID.TID 0000.0001) %MON thSI_SnwH_max_S              =   0.0000000000000E+00
(PID.TID 0000.0001) %MON thSI_SnwH_max_N              =   0.0000000000000E+00
(PID.TID 0000.0001) %MON thSI_Tsrf_ave_G              =  -4.1051132620912E+00
(PID.TID 0000.0001) %MON thSI_Tsrf_ave_S              =   0.0000000000000E+00
(PID.TID 0000.0001) %MON thSI_Tsrf_ave_N              =  -4.1051132620912E+00
(PID.TID 0000.0001) %MON thSI_Tsrf_min_S              =   0.0000000000000E+00
(PID.TID 0000.0001) %MON thSI_Tsrf_min_N              =  -4.3168163004106E+00
(PID.TID 0000.0001) %MON thSI_Tsrf_max_S              =   0.0000000000000E+00
(PID.TID 0000.0001) %MON thSI_Tsrf_max_N              =  -2.7988396094402E+00
(PID.TID 0000.0001) %MON thSI_Tic1_ave_G              =  -1.9165142563827E+00
(PID.TID 0000.0001) %MON thSI_Tic1_ave_S              =   0.0000000000000E+00
(PID.TID 0000.0001) %MON thSI_Tic1_ave_N              =  -1.9165142563827E+00
(PID.TID 0000.0001) %MON thSI_Tic1_min_S              =   0.0000000000000E+00
(PID.TID 0000.0001) %MON thSI_Tic1_min_N              =  -2.4124636831052E+00
(PID.TID 0000.0001) %MON thSI_Tic1_max_S              =   0.0000000000000E+00
(PID.TID 0000.0001) %MON thSI_Tic1_max_N              =  -1.8428568834597E+00
(PID.TID 0000.0001) %MON thSI_Tic2_ave_G              =  -1.7000820403019E+00
(PID.TID 0000.0001) %MON thSI_Tic2_ave_S              =   0.0000000000000E+00
(PID.TID 0000.0001) %MON thSI_Tic2_ave_N              =  -1.7000820403019E+00
(PID.TID 0000.0001) %MON thSI_Tic2_min_S              =   0.0000000000000E+00
(PID.TID 0000.0001) %MON thSI_Tic2_min_N              =  -1.9182373117623E+00
(PID.TID 0000.0001) %MON thSI_Tic2_max_S              =   0.0000000000000E+00
(PID.TID 0000.0001) %MON thSI_Tic2_max_N              =  -1.6439112936711E+00
(PID.TID 0000.0001) %MON thSI_TotEnerg_G              =  -8.8157877694319E+17
(PID.TID 0000.0001) // =======================================================
(PID.TID 0000.0001) // End MONITOR Therm.SeaIce statistics
(PID.TID 0000.0001) // =======================================================
 cg2d: Sum(rhs),rhsMax =  -2.78532752417959E-11  1.24889365811777E+04
(PID.TID 0000.0001)      cg2d_init_res =   3.03894512811469E+04
(PID.TID 0000.0001)      cg2d_iters(min,last) =      -1      16
(PID.TID 0000.0001)      cg2d_last_res =   1.11916563604750E-10
(PID.TID 0000.0001) // =======================================================
(PID.TID 0000.0001) // Begin MONITOR dynamic field statistics
(PID.TID 0000.0001) // =======================================================
(PID.TID 0000.0001) %MON time_tsnumber                =                     3
(PID.TID 0000.0001) %MON time_secondsf                =   1.3500000000000E+03
(PID.TID 0000.0001) %MON dynstat_eta_max              =   1.7731409811187E+03
(PID.TID 0000.0001) %MON dynstat_eta_min              =  -1.7282874294875E+03
(PID.TID 0000.0001) %MON dynstat_eta_mean             =  -2.5416530864497E-15
(PID.TID 0000.0001) %MON dynstat_eta_sd               =   1.8404783936832E+02
(PID.TID 0000.0001) %MON dynstat_eta_del2             =   4.8008619771621E+00
(PID.TID 0000.0001) %MON dynstat_uvel_max             =   6.3355087690751E+00
(PID.TID 0000.0001) %MON dynstat_uvel_min             =  -6.3583916256935E+00
(PID.TID 0000.0001) %MON dynstat_uvel_mean            =  -2.5819598626721E-03
(PID.TID 0000.0001) %MON dynstat_uvel_sd              =   5.3331800499020E-01
(PID.TID 0000.0001) %MON dynstat_uvel_del2            =   2.2901894118886E-03
(PID.TID 0000.0001) %MON dynstat_vvel_max             =   7.1590452392163E+00
(PID.TID 0000.0001) %MON dynstat_vvel_min             =  -8.2968744454607E+00
(PID.TID 0000.0001) %MON dynstat_vvel_mean            =   3.4302736281080E-03
(PID.TID 0000.0001) %MON dynstat_vvel_sd              =   4.9485868975662E-01
(PID.TID 0000.0001) %MON dynstat_vvel_del2            =   2.4820774115436E-03
(PID.TID 0000.0001) %MON dynstat_wvel_max             =   5.7695341587044E-02
(PID.TID 0000.0001) %MON dynstat_wvel_min             =  -5.6778025650165E-01
(PID.TID 0000.0001) %MON dynstat_wvel_mean            =  -2.4247381115732E-03
(PID.TID 0000.0001) %MON dynstat_wvel_sd              =   1.8254736078445E-02
(PID.TID 0000.0001) %MON dynstat_wvel_del2            =   1.8548891249784E-04
(PID.TID 0000.0001) %MON dynstat_theta_max            =   4.3759035185991E+02
(PID.TID 0000.0001) %MON dynstat_theta_min            =   2.8883964002462E+02
(PID.TID 0000.0001) %MON dynstat_theta_mean           =   3.3171695866997E+02
(PID.TID 0000.0001) %MON dynstat_theta_sd             =   4.7416702816030E+01
(PID.TID 0000.0001) %MON dynstat_theta_del2           =   3.9457882809066E-04
(PID.TID 0000.0001) %MON dynstat_salt_max             =   1.2937564243072E+00
(PID.TID 0000.0001) %MON dynstat_salt_min             =  -2.2801769443527E-03
(PID.TID 0000.0001) %MON dynstat_salt_mean            =   1.1898717262120E-02
(PID.TID 0000.0001) %MON dynstat_salt_sd              =   5.1787336818167E-02
(PID.TID 0000.0001) %MON dynstat_salt_del2            =   2.7304765973648E-04
(PID.TID 0000.0001) %MON trAdv_CFL_u_max              =   9.1988846818042E-03
(PID.TID 0000.0001) %MON trAdv_CFL_v_max              =   1.1870300094385E-02
(PID.TID 0000.0001) %MON trAdv_CFL_w_max              =   1.1799066060310E-02
(PID.TID 0000.0001) %MON advcfl_uvel_max              =   9.0945758898624E-03
(PID.TID 0000.0001) %MON advcfl_vvel_max              =   1.1801051435622E-02
(PID.TID 0000.0001) %MON advcfl_wvel_max              =   9.2909496518451E-03
(PID.TID 0000.0001) %MON advcfl_W_hf_max              =   1.1799066060310E-02
(PID.TID 0000.0001) %MON am_eta_mean                  =  -1.3543737378936E+08
(PID.TID 0000.0001) %MON am_uZo_mean                  =   1.2322111388770E+08
(PID.TID 0000.0001) %MON am_tot_mean                  =  -1.2216259901655E+07
(PID.TID 0000.0001) %MON pe_b_mean                    =  -3.6772888303863E-01
(PID.TID 0000.0001) %MON ke_max                       =   2.3678709595025E+01
(PID.TID 0000.0001) %MON ke_mean                      =   2.6310584797731E-01
(PID.TID 0000.0001) %MON ke_vol                       =   4.9523908919847E+19
(PID.TID 0000.0001) %MON vort_r_min                   =  -2.1108501763614E-05
(PID.TID 0000.0001) %MON vort_r_max                   =   1.2735014029496E-05
(PID.TID 0000.0001) %MON vort_a_mean                  =   6.7242814765358E-08
(PID.TID 0000.0001) %MON vort_a_sd                    =   8.3938507583828E-05
(PID.TID 0000.0001) %MON vort_p_mean                  =   6.8939448502540E-08
(PID.TID 0000.0001) %MON vort_p_sd                    =   9.1660804714136E-05
(PID.TID 0000.0001) %MON surfExpan_theta_mean         =   2.3243226111110E-01
(PID.TID 0000.0001) %MON surfExpan_salt_mean          =  -2.4981990602668E-07
(PID.TID 0000.0001) %MON surfExpan_Heat_mean          =  -1.9092899132722E+01
(PID.TID 0000.0001) %MON En_Budget_T2PE_mean          =   3.6351703483419E+01
(PID.TID 0000.0001) // =======================================================
(PID.TID 0000.0001) // End MONITOR dynamic field statistics
(PID.TID 0000.0001) // =======================================================
(PID.TID 0000.0001) // =======================================================
(PID.TID 0000.0001) // Begin MONITOR Land statistics
(PID.TID 0000.0001) // =======================================================
(PID.TID 0000.0001) %MON land_time_sec                =   1.3500000000000E+03
(PID.TID 0000.0001) %MON land_SnwH_ave_G              =   1.5324622502256E-01
(PID.TID 0000.0001) %MON land_SnwH_ave_S              =   5.5906076154895E-01
(PID.TID 0000.0001) %MON land_SnwH_ave_T              =   0.0000000000000E+00
(PID.TID 0000.0001) %MON land_SnwH_ave_N              =   1.2393578421603E-01
(PID.TID 0000.0001) %MON land_SnwH_max_S              =   9.9999852294588E-01
(PID.TID 0000.0001) %MON land_SnwH_max_T              =   0.0000000000000E+00
(PID.TID 0000.0001) %MON land_SnwH_max_N              =   9.9999979568969E-01
(PID.TID 0000.0001) %MON land_Tsrf_ave_G              =  -5.4066968172029E+00
(PID.TID 0000.0001) %MON land_Tsrf_ave_S              =  -5.6666429486409E+00
(PID.TID 0000.0001) %MON land_Tsrf_ave_T              =   1.7063131196008E+01
(PID.TID 0000.0001) %MON land_Tsrf_ave_N              =  -2.0327062196928E+01
(PID.TID 0000.0001) %MON land_Tsrf_min_S              =  -3.4646161839409E+01
(PID.TID 0000.0001) %MON land_Tsrf_min_T              =  -7.2844964893619E+00
(PID.TID 0000.0001) %MON land_Tsrf_min_N              =  -5.0746569695302E+01
(PID.TID 0000.0001) %MON land_Tsrf_max_S              =   2.9347435051971E+01
(PID.TID 0000.0001) %MON land_Tsrf_max_T              =   3.2664839786154E+01
(PID.TID 0000.0001) %MON land_Tsrf_max_N              =   1.4116460533120E+01
(PID.TID 0000.0001) %MON land_Tgr1_ave_G              =  -3.9621534956381E+00
(PID.TID 0000.0001) %MON land_Tgr1_ave_S              =  -4.5431833047229E+00
(PID.TID 0000.0001) %MON land_Tgr1_ave_T              =   1.7063131196008E+01
(PID.TID 0000.0001) %MON land_Tgr1_ave_N              =  -1.7813737739879E+01
(PID.TID 0000.0001) %MON land_Tgr1_min_S              =  -3.9023247758884E+01
(PID.TID 0000.0001) %MON land_Tgr1_min_T              =  -7.2844964893619E+00
(PID.TID 0000.0001) %MON land_Tgr1_min_N              =  -5.4978536643449E+01
(PID.TID 0000.0001) %MON land_Tgr1_max_S              =   2.9347435051971E+01
(PID.TID 0000.0001) %MON land_Tgr1_max_T              =   3.2664839786154E+01
(PID.TID 0000.0001) %MON land_Tgr1_max_N              =   1.4116460533120E+01
(PID.TID 0000.0001) %MON land_Tgr2_ave_G              =   4.2072329473049E+00
(PID.TID 0000.0001) %MON land_Tgr2_ave_S              =  -1.8731176189024E+01
(PID.TID 0000.0001) %MON land_Tgr2_ave_T              =   2.2012913773590E+01
(PID.TID 0000.0001) %MON land_Tgr2_ave_N              =  -2.4179689447860E-01
(PID.TID 0000.0001) %MON land_Tgr2_min_S              =  -6.4760993180772E+01
(PID.TID 0000.0001) %MON land_Tgr2_min_T              =  -9.7050245989051E+00
(PID.TID 0000.0001) %MON land_Tgr2_min_N              =  -4.0194343038290E+01
(PID.TID 0000.0001) %MON land_Tgr2_max_S              =   2.3360375712416E+01
(PID.TID 0000.0001) %MON land_Tgr2_max_T              =   3.1360140999493E+01
(PID.TID 0000.0001) %MON land_Tgr2_max_N              =   2.9831710399935E+01
(PID.TID 0000.0001) %MON land_TotEnerg_G              =  -6.2665672618579E+21
(PID.TID 0000.0001) %MON land_TotEnerg_S              =  -4.9936150487047E+21
(PID.TID 0000.0001) %MON land_TotEnerg_T              =   7.3367986792183E+21
(PID.TID 0000.0001) %MON land_TotEnerg_N              =  -8.6097508923716E+21
(PID.TID 0000.0001) %MON land_grdW_ave_G              =   4.8699898823796E-01
(PID.TID 0000.0001) %MON land_grdW_ave_S              =   3.0873376507385E-01
(PID.TID 0000.0001) %MON land_grdW_ave_T              =   5.6478878764496E-01
(PID.TID 0000.0001) %MON land_grdW_ave_N              =   4.9288140016015E-01
(PID.TID 0000.0001) %MON land_grdW_min_S              =   2.5955187998287E-02
(PID.TID 0000.0001) %MON land_grdW_min_T              =   0.0000000000000E+00
(PID.TID 0000.0001) %MON land_grdW_min_N              =   0.0000000000000E+00
(PID.TID 0000.0001) // =======================================================
(PID.TID 0000.0001) // End MONITOR Land statistics
(PID.TID 0000.0001) // =======================================================
(PID.TID 0000.0001) // =======================================================
(PID.TID 0000.0001) // Begin MONITOR Therm.SeaIce statistics
(PID.TID 0000.0001) // =======================================================
(PID.TID 0000.0001) %MON thSI_time_sec                =   1.3500000000000E+03
(PID.TID 0000.0001) %MON thSI_Ice_Area_G              =   4.6686815426078E+10
(PID.TID 0000.0001) %MON thSI_Ice_Area_S              =   0.0000000000000E+00
(PID.TID 0000.0001) %MON thSI_Ice_Area_N              =   4.6686815426078E+10
(PID.TID 0000.0001) %MON thSI_IceH_ave_G              =   9.4303675481148E-02
(PID.TID 0000.0001) %MON thSI_IceH_ave_S              =   0.0000000000000E+00
(PID.TID 0000.0001) %MON thSI_IceH_ave_N              =   9.4303675481148E-02
(PID.TID 0000.0001) %MON thSI_IceH_max_S              =   0.0000000000000E+00
(PID.TID 0000.0001) %MON thSI_IceH_max_N              =   1.0595980659811E-01
(PID.TID 0000.0001) %MON thSI_SnwH_ave_G              =   0.0000000000000E+00
(PID.TID 0000.0001) %MON thSI_SnwH_ave_S              =   0.0000000000000E+00
(PID.TID 0000.0001) %MON thSI_SnwH_ave_N              =   0.0000000000000E+00
(PID.TID 0000.0001) %MON thSI_SnwH_max_S              =   0.0000000000000E+00
(PID.TID 0000.0001) %MON thSI_SnwH_max_N              =   0.0000000000000E+00
(PID.TID 0000.0001) %MON thSI_Tsrf_ave_G              =  -4.4334880610602E+00
(PID.TID 0000.0001) %MON thSI_Tsrf_ave_S              =   0.0000000000000E+00
(PID.TID 0000.0001) %MON thSI_Tsrf_ave_N              =  -4.4334880610602E+00
(PID.TID 0000.0001) %MON thSI_Tsrf_min_S              =   0.0000000000000E+00
(PID.TID 0000.0001) %MON thSI_Tsrf_min_N              =  -4.6361986899377E+00
(PID.TID 0000.0001) %MON thSI_Tsrf_max_S              =   0.0000000000000E+00
(PID.TID 0000.0001) %MON thSI_Tsrf_max_N              =  -3.1061909899498E+00
(PID.TID 0000.0001) %MON thSI_Tic1_ave_G              =  -2.2168410790185E+00
(PID.TID 0000.0001) %MON thSI_Tic1_ave_S              =   0.0000000000000E+00
(PID.TID 0000.0001) %MON thSI_Tic1_ave_N              =  -2.2168410790185E+00
(PID.TID 0000.0001) %MON thSI_Tic1_min_S              =   0.0000000000000E+00
(PID.TID 0000.0001) %MON thSI_Tic1_min_N              =  -2.9277109408126E+00
(PID.TID 0000.0001) %MON thSI_Tic1_max_S              =   0.0000000000000E+00
(PID.TID 0000.0001) %MON thSI_Tic1_max_N              =  -2.1246319731221E+00
(PID.TID 0000.0001) %MON thSI_Tic2_ave_G              =  -1.7555691831790E+00
(PID.TID 0000.0001) %MON thSI_Tic2_ave_S              =   0.0000000000000E+00
(PID.TID 0000.0001) %MON thSI_Tic2_ave_N              =  -1.7555691831790E+00
(PID.TID 0000.0001) %MON thSI_Tic2_min_S              =   0.0000000000000E+00
(PID.TID 0000.0001) %MON thSI_Tic2_min_N              =  -2.0618951866311E+00
(PID.TID 0000.0001) %MON thSI_Tic2_max_S              =   0.0000000000000E+00
(PID.TID 0000.0001) %MON thSI_Tic2_max_N              =  -1.6936998634700E+00
(PID.TID 0000.0001) %MON thSI_TotEnerg_G              =  -1.3243769509491E+18
(PID.TID 0000.0001) // =======================================================
(PID.TID 0000.0001) // End MONITOR Therm.SeaIce statistics
(PID.TID 0000.0001) // =======================================================
 cg2d: Sum(rhs),rhsMax =   9.01536623132415E-11  1.42975978071971E+04
(PID.TID 0000.0001)      cg2d_init_res =   2.56629010277420E+04
(PID.TID 0000.0001)      cg2d_iters(min,last) =      -1      16
(PID.TID 0000.0001)      cg2d_last_res =   9.18298666342396E-11
(PID.TID 0000.0001) // =======================================================
(PID.TID 0000.0001) // Begin MONITOR dynamic field statistics
(PID.TID 0000.0001) // =======================================================
(PID.TID 0000.0001) %MON time_tsnumber                =                     4
(PID.TID 0000.0001) %MON time_secondsf                =   1.8000000000000E+03
(PID.TID 0000.0001) %MON dynstat_eta_max              =   2.5477349368686E+03
(PID.TID 0000.0001) %MON dynstat_eta_min              =  -2.2486302368654E+03
(PID.TID 0000.0001) %MON dynstat_eta_mean             =  -3.2445299893692E-15
(PID.TID 0000.0001) %MON dynstat_eta_sd               =   2.4110388261580E+02
(PID.TID 0000.0001) %MON dynstat_eta_del2             =   5.3315111183030E+00
(PID.TID 0000.0001) %MON dynstat_uvel_max             =   7.1062453659883E+00
(PID.TID 0000.0001) %MON dynstat_uvel_min             =  -7.2020680043338E+00
(PID.TID 0000.0001) %MON dynstat_uvel_mean            =  -3.3978085857104E-03
(PID.TID 0000.0001) %MON dynstat_uvel_sd              =   6.1791265929448E-01
(PID.TID 0000.0001) %MON dynstat_uvel_del2            =   1.9206658033188E-03
(PID.TID 0000.0001) %MON dynstat_vvel_max             =   7.7297546701247E+00
(PID.TID 0000.0001) %MON dynstat_vvel_min             =  -8.9166737391853E+00
(PID.TID 0000.0001) %MON dynstat_vvel_mean            =   4.6770699130614E-03
(PID.TID 0000.0001) %MON dynstat_vvel_sd              =   5.7126473029636E-01
(PID.TID 0000.0001) %MON dynstat_vvel_del2            =   1.9667162105598E-03
(PID.TID 0000.0001) %MON dynstat_wvel_max             =   7.8158647786461E-02
(PID.TID 0000.0001) %MON dynstat_wvel_min             =  -5.4990013548495E-01
(PID.TID 0000.0001) %MON dynstat_wvel_mean            =  -2.4889176375830E-03
(PID.TID 0000.0001) %MON dynstat_wvel_sd              =   1.9128943408654E-02
(PID.TID 0000.0001) %MON dynstat_wvel_del2            =   2.0628950477574E-04
(PID.TID 0000.0001) %MON dynstat_theta_max            =   4.3767662797376E+02
(PID.TID 0000.0001) %MON dynstat_theta_min            =   2.8859313287818E+02
(PID.TID 0000.0001) %MON dynstat_theta_mean           =   3.3171669139887E+02
(PID.TID 0000.0001) %MON dynstat_theta_sd             =   4.7417210435059E+01
(PID.TID 0000.0001) %MON dynstat_theta_del2           =   6.0087769420016E-04
(PID.TID 0000.0001) %MON dynstat_salt_max             =   1.6276559003889E+00
(PID.TID 0000.0001) %MON dynstat_salt_min             =  -1.5947538632691E-03
(PID.TID 0000.0001) %MON dynstat_salt_mean            =   1.5760500048503E-02
(PID.TID 0000.0001) %MON dynstat_salt_sd              =   6.8254025969865E-02
(PID.TID 0000.0001) %MON dynstat_salt_del2            =   3.4385336850231E-04
(PID.TID 0000.0001) %MON trAdv_CFL_u_max              =   1.0451376991575E-02
(PID.TID 0000.0001) %MON trAdv_CFL_v_max              =   1.2817612136994E-02
(PID.TID 0000.0001) %MON trAdv_CFL_w_max              =   1.1593255650196E-02
(PID.TID 0000.0001) %MON advcfl_uvel_max              =   1.0292475925982E-02
(PID.TID 0000.0001) %MON advcfl_vvel_max              =   1.2682622368519E-02
(PID.TID 0000.0001) %MON advcfl_wvel_max              =   8.9983658533900E-03
(PID.TID 0000.0001) %MON advcfl_W_hf_max              =   1.1593255650196E-02
(PID.TID 0000.0001) %MON am_eta_mean                  =  -2.7243447885569E+08
(PID.TID 0000.0001) %MON am_uZo_mean                  =   2.5760713524719E+08
(PID.TID 0000.0001) %MON am_tot_mean                  =  -1.4827343608495E+07
(PID.TID 0000.0001) %MON pe_b_mean                    =  -4.7076891657238E-01
(PID.TID 0000.0001) %MON ke_max                       =   2.9476635910396E+01
(PID.TID 0000.0001) %MON ke_mean                      =   3.5200948755225E-01
(PID.TID 0000.0001) %MON ke_vol                       =   4.9523908919847E+19
(PID.TID 0000.0001) %MON vort_r_min                   =  -2.4047995950596E-05
(PID.TID 0000.0001) %MON vort_r_max                   =   1.3418085224815E-05
(PID.TID 0000.0001) %MON vort_a_mean                  =   6.7242814765289E-08
(PID.TID 0000.0001) %MON vort_a_sd                    =   8.3939804235627E-05
(PID.TID 0000.0001) %MON vort_p_mean                  =   6.8939448748782E-08
(PID.TID 0000.0001) %MON vort_p_sd                    =   9.1689537564300E-05
(PID.TID 0000.0001) %MON surfExpan_theta_mean         =   2.3947746742944E-01
(PID.TID 0000.0001) %MON surfExpan_salt_mean          =  -6.1651601892163E-06
(PID.TID 0000.0001) %MON surfExpan_Heat_mean          =  -1.9729509825710E+01
(PID.TID 0000.0001) %MON En_Budget_T2PE_mean          =   3.7470383118566E+01
(PID.TID 0000.0001) // =======================================================
(PID.TID 0000.0001) // End MONITOR dynamic field statistics
(PID.TID 0000.0001) // =======================================================
(PID.TID 0000.0001) // =======================================================
(PID.TID 0000.0001) // Begin MONITOR Land statistics
(PID.TID 0000.0001) // =======================================================
(PID.TID 0000.0001) %MON land_time_sec                =   1.8000000000000E+03
(PID.TID 0000.0001) %MON land_SnwH_ave_G              =   1.5324495261160E-01
(PID.TID 0000.0001) %MON land_SnwH_ave_S              =   5.5905996335260E-01
(PID.TID 0000.0001) %MON land_SnwH_ave_T              =   0.0000000000000E+00
(PID.TID 0000.0001) %MON land_SnwH_ave_N              =   1.2393350829412E-01
(PID.TID 0000.0001) %MON land_SnwH_max_S              =   9.9999800545357E-01
(PID.TID 0000.0001) %MON land_SnwH_max_T              =   0.0000000000000E+00
(PID.TID 0000.0001) %MON land_SnwH_max_N              =   9.9999970603938E-01
(PID.TID 0000.0001) %MON land_Tsrf_ave_G              =  -5.7021973223184E+00
(PID.TID 0000.0001) %MON land_Tsrf_ave_S              =  -5.7476622298033E+00
(PID.TID 0000.0001) %MON land_Tsrf_ave_T              =   1.6283401161955E+01
(PID.TID 0000.0001) %MON land_Tsrf_ave_N              =  -2.0368784865761E+01
(PID.TID 0000.0001) %MON land_Tsrf_min_S              =  -3.4486678106233E+01
(PID.TID 0000.0001) %MON land_Tsrf_min_T              =  -7.0475660045923E+00
(PID.TID 0000.0001) %MON land_Tsrf_min_N              =  -4.9789591811598E+01
(PID.TID 0000.0001) %MON land_Tsrf_max_S              =   2.8298584733971E+01
(PID.TID 0000.0001) %MON land_Tsrf_max_T              =   3.1353235954929E+01
(PID.TID 0000.0001) %MON land_Tsrf_max_N              =   1.3564103816882E+01
(PID.TID 0000.0001) %MON land_Tgr1_ave_G              =  -4.3138566113080E+00
(PID.TID 0000.0001) %MON land_Tgr1_ave_S              =  -4.8556628944845E+00
(PID.TID 0000.0001) %MON land_Tgr1_ave_T              =   1.6283401161955E+01
(PID.TID 0000.0001) %MON land_Tgr1_ave_N              =  -1.7892340940321E+01
(PID.TID 0000.0001) %MON land_Tgr1_min_S              =  -3.9035412232948E+01
(PID.TID 0000.0001) %MON land_Tgr1_min_T              =  -7.0475660045923E+00
(PID.TID 0000.0001) %MON land_Tgr1_min_N              =  -5.4963404779971E+01
(PID.TID 0000.0001) %MON land_Tgr1_max_S              =   2.8298584733971E+01
(PID.TID 0000.0001) %MON land_Tgr1_max_T              =   3.1353235954929E+01
(PID.TID 0000.0001) %MON land_Tgr1_max_N              =   1.3564103816882E+01
(PID.TID 0000.0001) %MON land_Tgr2_ave_G              =   4.2071043060479E+00
(PID.TID 0000.0001) %MON land_Tgr2_ave_S              =  -1.8730945683808E+01
(PID.TID 0000.0001) %MON land_Tgr2_ave_T              =   2.2012818166471E+01
(PID.TID 0000.0001) %MON land_Tgr2_ave_N              =  -2.4206409988858E-01
(PID.TID 0000.0001) %MON land_Tgr2_min_S              =  -6.4760559179900E+01
(PID.TID 0000.0001) %MON land_Tgr2_min_T              =  -9.7049910210744E+00
(PID.TID 0000.0001) %MON land_Tgr2_min_N              =  -4.0194583712483E+01
(PID.TID 0000.0001) %MON land_Tgr2_max_S              =   2.3360456227969E+01
(PID.TID 0000.0001) %MON land_Tgr2_max_T              =   3.1359846932495E+01
(PID.TID 0000.0001) %MON land_Tgr2_max_N              =   2.9831342454517E+01
(PID.TID 0000.0001) %MON land_TotEnerg_G              =  -6.2755137837003E+21
(PID.TID 0000.0001) %MON land_TotEnerg_S              =  -4.9946858529561E+21
(PID.TID 0000.0001) %MON land_TotEnerg_T              =   7.3299593457707E+21
(PID.TID 0000.0001) %MON land_TotEnerg_N              =  -8.6107872765148E+21
(PID.TID 0000.0001) %MON land_grdW_ave_G              =   4.8698184328147E-01
(PID.TID 0000.0001) %MON land_grdW_ave_S              =   3.0872085302630E-01
(PID.TID 0000.0001) %MON land_grdW_ave_T              =   5.6474441112469E-01
(PID.TID 0000.0001) %MON land_grdW_ave_N              =   4.9288106651122E-01
(PID.TID 0000.0001) %MON land_grdW_min_S              =   2.5981815643048E-02
(PID.TID 0000.0001) %MON land_grdW_min_T              =   0.0000000000000E+00
(PID.TID 0000.0001) %MON land_grdW_min_N              =   0.0000000000000E+00
(PID.TID 0000.0001) // =======================================================
(PID.TID 0000.0001) // End MONITOR Land statistics
(PID.TID 0000.0001) // =======================================================
(PID.TID 0000.0001) // =======================================================
(PID.TID 0000.0001) // Begin MONITOR Therm.SeaIce statistics
(PID.TID 0000.0001) // =======================================================
(PID.TID 0000.0001) %MON thSI_time_sec                =   1.8000000000000E+03
(PID.TID 0000.0001) %MON thSI_Ice_Area_G              =   6.0853051275762E+10
(PID.TID 0000.0001) %MON thSI_Ice_Area_S              =   0.0000000000000E+00
(PID.TID 0000.0001) %MON thSI_Ice_Area_N              =   6.0853051275762E+10
(PID.TID 0000.0001) %MON thSI_IceH_ave_G              =   9.6350324906708E-02
(PID.TID 0000.0001) %MON thSI_IceH_ave_S              =   0.0000000000000E+00
(PID.TID 0000.0001) %MON thSI_IceH_ave_N              =   9.6350324906708E-02
(PID.TID 0000.0001) %MON thSI_IceH_max_S              =   0.0000000000000E+00
(PID.TID 0000.0001) %MON thSI_IceH_max_N              =   1.0892218156075E-01
(PID.TID 0000.0001) %MON thSI_SnwH_ave_G              =   0.0000000000000E+00
(PID.TID 0000.0001) %MON thSI_SnwH_ave_S              =   0.0000000000000E+00
(PID.TID 0000.0001) %MON thSI_SnwH_ave_N              =   0.0000000000000E+00
(PID.TID 0000.0001) %MON thSI_SnwH_max_S              =   0.0000000000000E+00
(PID.TID 0000.0001) %MON thSI_SnwH_max_N              =   0.0000000000000E+00
(PID.TID 0000.0001) %MON thSI_Tsrf_ave_G              =  -4.7481737628090E+00
(PID.TID 0000.0001) %MON thSI_Tsrf_ave_S              =   0.0000000000000E+00
(PID.TID 0000.0001) %MON thSI_Tsrf_ave_N              =  -4.7481737628090E+00
(PID.TID 0000.0001) %MON thSI_Tsrf_min_S              =   0.0000000000000E+00
(PID.TID 0000.0001) %MON thSI_Tsrf_min_N              =  -4.9715308612728E+00
(PID.TID 0000.0001) %MON thSI_Tsrf_max_S              =   0.0000000000000E+00
(PID.TID 0000.0001) %MON thSI_Tsrf_max_N              =  -3.2224169915663E+00
(PID.TID 0000.0001) %MON thSI_Tic1_ave_G              =  -2.5295722658378E+00
(PID.TID 0000.0001) %MON thSI_Tic1_ave_S              =   0.0000000000000E+00
(PID.TID 0000.0001) %MON thSI_Tic1_ave_N              =  -2.5295722658378E+00
(PID.TID 0000.0001) %MON thSI_Tic1_min_S              =   0.0000000000000E+00
(PID.TID 0000.0001) %MON thSI_Tic1_min_N              =  -3.3367030829554E+00
(PID.TID 0000.0001) %MON thSI_Tic1_max_S              =   0.0000000000000E+00
(PID.TID 0000.0001) %MON thSI_Tic1_max_N              =  -2.4272988286529E+00
(PID.TID 0000.0001) %MON thSI_Tic2_ave_G              =  -1.8238183679147E+00
(PID.TID 0000.0001) %MON thSI_Tic2_ave_S              =   0.0000000000000E+00
(PID.TID 0000.0001) %MON thSI_Tic2_ave_N              =  -1.8238183679147E+00
(PID.TID 0000.0001) %MON thSI_Tic2_min_S              =   0.0000000000000E+00
(PID.TID 0000.0001) %MON thSI_Tic2_min_N              =  -2.2051568445413E+00
(PID.TID 0000.0001) %MON thSI_Tic2_max_S              =   0.0000000000000E+00
(PID.TID 0000.0001) %MON thSI_Tic2_max_N              =  -1.7585114730161E+00
(PID.TID 0000.0001) %MON thSI_TotEnerg_G              =  -1.7683686015486E+18
(PID.TID 0000.0001) // =======================================================
(PID.TID 0000.0001) // End MONITOR Therm.SeaIce statistics
(PID.TID 0000.0001) // =======================================================
 cg2d: Sum(rhs),rhsMax =  -3.16049408866093E-11  1.78279621244568E+04
(PID.TID 0000.0001)      cg2d_init_res =   2.28385210479845E+04
(PID.TID 0000.0001)      cg2d_iters(min,last) =      -1      16
(PID.TID 0000.0001)      cg2d_last_res =   7.52629837174758E-11
(PID.TID 0000.0001) // =======================================================
(PID.TID 0000.0001) // Begin MONITOR dynamic field statistics
(PID.TID 0000.0001) // =======================================================
(PID.TID 0000.0001) %MON time_tsnumber                =                     5
(PID.TID 0000.0001) %MON time_secondsf                =   2.2500000000000E+03
(PID.TID 0000.0001) %MON dynstat_eta_max              =   3.1869816289794E+03
(PID.TID 0000.0001) %MON dynstat_eta_min              =  -2.5557682535854E+03
(PID.TID 0000.0001) %MON dynstat_eta_mean             =   8.2211494895041E-16
(PID.TID 0000.0001) %MON dynstat_eta_sd               =   2.8780828782270E+02
(PID.TID 0000.0001) %MON dynstat_eta_del2             =   5.3348596226352E+00
(PID.TID 0000.0001) %MON dynstat_uvel_max             =   7.7061175837315E+00
(PID.TID 0000.0001) %MON dynstat_uvel_min             =  -7.6411535533856E+00
(PID.TID 0000.0001) %MON dynstat_uvel_mean            =  -4.1575924266424E-03
(PID.TID 0000.0001) %MON dynstat_uvel_sd              =   6.7817421120246E-01
(PID.TID 0000.0001) %MON dynstat_uvel_del2            =   1.8005352457511E-03
(PID.TID 0000.0001) %MON dynstat_vvel_max             =   8.0033460418762E+00
(PID.TID 0000.0001) %MON dynstat_vvel_min             =  -8.9448113416548E+00
(PID.TID 0000.0001) %MON dynstat_vvel_mean            =   6.0064243427486E-03
(PID.TID 0000.0001) %MON dynstat_vvel_sd              =   6.3509510897765E-01
(PID.TID 0000.0001) %MON dynstat_vvel_del2            =   1.7775293002436E-03
(PID.TID 0000.0001) %MON dynstat_wvel_max             =   1.6151695442264E-01
(PID.TID 0000.0001) %MON dynstat_wvel_min             =  -4.9741876989563E-01
(PID.TID 0000.0001) %MON dynstat_wvel_mean            =  -2.3870426405791E-03
(PID.TID 0000.0001) %MON dynstat_wvel_sd              =   1.9932417391149E-02
(PID.TID 0000.0001) %MON dynstat_wvel_del2            =   2.3287155869319E-04
(PID.TID 0000.0001) %MON dynstat_theta_max            =   4.3782460439395E+02
(PID.TID 0000.0001) %MON dynstat_theta_min            =   2.8834886795009E+02
(PID.TID 0000.0001) %MON dynstat_theta_mean           =   3.3171621754022E+02
(PID.TID 0000.0001) %MON dynstat_theta_sd             =   4.7418027248331E+01
(PID.TID 0000.0001) %MON dynstat_theta_del2           =   8.7365351826451E-04
(PID.TID 0000.0001) %MON dynstat_salt_max             =   1.9269162844908E+00
(PID.TID 0000.0001) %MON dynstat_salt_min             =  -9.1092444591194E-04
(PID.TID 0000.0001) %MON dynstat_salt_mean            =   1.9578775673732E-02
(PID.TID 0000.0001) %MON dynstat_salt_sd              =   8.4401117669742E-02
(PID.TID 0000.0001) %MON dynstat_salt_del2            =   4.0647857680206E-04
(PID.TID 0000.0001) %MON trAdv_CFL_u_max              =   1.1115411781578E-02
(PID.TID 0000.0001) %MON trAdv_CFL_v_max              =   1.2905604080276E-02
(PID.TID 0000.0001) %MON trAdv_CFL_w_max              =   1.2834734321328E-02
(PID.TID 0000.0001) %MON advcfl_uvel_max              =   1.0923049354459E-02
(PID.TID 0000.0001) %MON advcfl_vvel_max              =   1.2722643860491E-02
(PID.TID 0000.0001) %MON advcfl_wvel_max              =   8.1395798710194E-03
(PID.TID 0000.0001) %MON advcfl_W_hf_max              =   1.2834734321328E-02
(PID.TID 0000.0001) %MON am_eta_mean                  =  -4.5578206048066E+08
(PID.TID 0000.0001) %MON am_uZo_mean                  =   4.3926950621027E+08
(PID.TID 0000.0001) %MON am_tot_mean                  =  -1.6512554270392E+07
(PID.TID 0000.0001) %MON pe_b_mean                    =  -5.5706709415473E-01
(PID.TID 0000.0001) %MON ke_max                       =   3.3811553352562E+01
(PID.TID 0000.0001) %MON ke_mean                      =   4.2911615808872E-01
(PID.TID 0000.0001) %MON ke_vol                       =   4.9523908919847E+19
(PID.TID 0000.0001) %MON vort_r_min                   =  -2.6166363583214E-05
(PID.TID 0000.0001) %MON vort_r_max                   =   1.3399581100985E-05
(PID.TID 0000.0001) %MON vort_a_mean                  =   6.7242814765254E-08
(PID.TID 0000.0001) %MON vort_a_sd                    =   8.3941398935498E-05
(PID.TID 0000.0001) %MON vort_p_mean                  =   6.8939448885217E-08
(PID.TID 0000.0001) %MON vort_p_sd                    =   9.1721368896206E-05
(PID.TID 0000.0001) %MON surfExpan_theta_mean         =   2.3080906318107E-01
(PID.TID 0000.0001) %MON surfExpan_salt_mean          =  -1.5819958746499E-05
(PID.TID 0000.0001) %MON surfExpan_Heat_mean          =  -1.9026149911500E+01
(PID.TID 0000.0001) %MON En_Budget_T2PE_mean          =   3.6071312379571E+01
(PID.TID 0000.0001) // =======================================================
(PID.TID 0000.0001) // End MONITOR dynamic field statistics
(PID.TID 0000.0001) // =======================================================
(PID.TID 0000.0001) // =======================================================
(PID.TID 0000.0001) // Begin MONITOR Land statistics
(PID.TID 0000.0001) // =======================================================
(PID.TID 0000.0001) %MON land_time_sec                =   2.2500000000000E+03
(PID.TID 0000.0001) %MON land_SnwH_ave_G              =   1.5324375393820E-01
(PID.TID 0000.0001) %MON land_SnwH_ave_S              =   5.5905911614641E-01
(PID.TID 0000.0001) %MON land_SnwH_ave_T              =   0.0000000000000E+00
(PID.TID 0000.0001) %MON land_SnwH_ave_N              =   1.2393139516806E-01
(PID.TID 0000.0001) %MON land_SnwH_max_S              =   9.9999747502186E-01
(PID.TID 0000.0001) %MON land_SnwH_max_T              =   0.0000000000000E+00
(PID.TID 0000.0001) %MON land_SnwH_max_N              =   9.9999960963062E-01
(PID.TID 0000.0001) %MON land_Tsrf_ave_G              =  -5.9692968263100E+00
(PID.TID 0000.0001) %MON land_Tsrf_ave_S              =  -5.8041648389917E+00
(PID.TID 0000.0001) %MON land_Tsrf_ave_T              =   1.5593503529621E+01
(PID.TID 0000.0001) %MON land_Tsrf_ave_N              =  -2.0421868563412E+01
(PID.TID 0000.0001) %MON land_Tsrf_min_S              =  -3.4276277093504E+01
(PID.TID 0000.0001) %MON land_Tsrf_min_T              =  -6.8207607496966E+00
(PID.TID 0000.0001) %MON land_Tsrf_min_N              =  -4.9237377381340E+01
(PID.TID 0000.0001) %MON land_Tsrf_max_S              =   2.7364591892140E+01
(PID.TID 0000.0001) %MON land_Tsrf_max_T              =   3.0172467236593E+01
(PID.TID 0000.0001) %MON land_Tsrf_max_N              =   1.3050703584976E+01
(PID.TID 0000.0001) %MON land_Tgr1_ave_G              =  -4.6269778931557E+00
(PID.TID 0000.0001) %MON land_Tgr1_ave_S              =  -5.1315609963696E+00
(PID.TID 0000.0001) %MON land_Tgr1_ave_T              =   1.5593503529621E+01
(PID.TID 0000.0001) %MON land_Tgr1_ave_N              =  -1.7965937028892E+01
(PID.TID 0000.0001) %MON land_Tgr1_min_S              =  -3.9047341052666E+01
(PID.TID 0000.0001) %MON land_Tgr1_min_T              =  -6.8207607496966E+00
(PID.TID 0000.0001) %MON land_Tgr1_min_N              =  -5.4947760191232E+01
(PID.TID 0000.0001) %MON land_Tgr1_max_S              =   2.7364591892140E+01
(PID.TID 0000.0001) %MON land_Tgr1_max_T              =   3.0172467236593E+01
(PID.TID 0000.0001) %MON land_Tgr1_max_N              =   1.3050703584976E+01
(PID.TID 0000.0001) %MON land_Tgr2_ave_G              =   4.2069705016316E+00
(PID.TID 0000.0001) %MON land_Tgr2_ave_S              =  -1.8730719569071E+01
(PID.TID 0000.0001) %MON land_Tgr2_ave_T              =   2.2012711331783E+01
(PID.TID 0000.0001) %MON land_Tgr2_ave_N              =  -2.4233266947684E-01
(PID.TID 0000.0001) %MON land_Tgr2_min_S              =  -6.4760125403121E+01
(PID.TID 0000.0001) %MON land_Tgr2_min_T              =  -9.7049545776803E+00
(PID.TID 0000.0001) %MON land_Tgr2_min_N              =  -4.0194824103799E+01
(PID.TID 0000.0001) %MON land_Tgr2_max_S              =   2.3360519814465E+01
(PID.TID 0000.0001) %MON land_Tgr2_max_T              =   3.1359538887167E+01
(PID.TID 0000.0001) %MON land_Tgr2_max_N              =   2.9830963140153E+01
(PID.TID 0000.0001) %MON land_TotEnerg_G              =  -6.2834915958937E+21
(PID.TID 0000.0001) %MON land_TotEnerg_S              =  -4.9956266496844E+21
(PID.TID 0000.0001) %MON land_TotEnerg_T              =   7.3239217690487E+21
(PID.TID 0000.0001) %MON land_TotEnerg_N              =  -8.6117867152579E+21
(PID.TID 0000.0001) %MON land_grdW_ave_G              =   4.8696578036615E-01
(PID.TID 0000.0001) %MON land_grdW_ave_S              =   3.0870857917392E-01
(PID.TID 0000.0001) %MON land_grdW_ave_T              =   5.6470297634175E-01
(PID.TID 0000.0001) %MON land_grdW_ave_N              =   4.9288071703398E-01
(PID.TID 0000.0001) %MON land_grdW_min_S              =   2.6017284083298E-02
(PID.TID 0000.0001) %MON land_grdW_min_T              =   0.0000000000000E+00
(PID.TID 0000.0001) %MON land_grdW_min_N              =   0.0000000000000E+00
(PID.TID 0000.0001) // =======================================================
(PID.TID 0000.0001) // End MONITOR Land statistics
(PID.TID 0000.0001) // =======================================================
(PID.TID 0000.0001) // =======================================================
(PID.TID 0000.0001) // Begin MONITOR Therm.SeaIce statistics
(PID.TID 0000.0001) // =======================================================
(PID.TID 0000.0001) %MON thSI_time_sec                =   2.2500000000000E+03
(PID.TID 0000.0001) %MON thSI_Ice_Area_G              =   7.4411856174213E+10
(PID.TID 0000.0001) %MON thSI_Ice_Area_S              =   0.0000000000000E+00
(PID.TID 0000.0001) %MON thSI_Ice_Area_N              =   7.4411856174213E+10
(PID.TID 0000.0001) %MON thSI_IceH_ave_G              =   9.8391937377768E-02
(PID.TID 0000.0001) %MON thSI_IceH_ave_S              =   0.0000000000000E+00
(PID.TID 0000.0001) %MON thSI_IceH_ave_N              =   9.8391937377768E-02
(PID.TID 0000.0001) %MON thSI_IceH_max_S              =   0.0000000000000E+00
(PID.TID 0000.0001) %MON thSI_IceH_max_N              =   1.1187413532772E-01
(PID.TID 0000.0001) %MON thSI_SnwH_ave_G              =   0.0000000000000E+00
(PID.TID 0000.0001) %MON thSI_SnwH_ave_S              =   0.0000000000000E+00
(PID.TID 0000.0001) %MON thSI_SnwH_ave_N              =   0.0000000000000E+00
(PID.TID 0000.0001) %MON thSI_SnwH_max_S              =   0.0000000000000E+00
(PID.TID 0000.0001) %MON thSI_SnwH_max_N              =   0.0000000000000E+00
(PID.TID 0000.0001) %MON thSI_Tsrf_ave_G              =  -5.0556404701194E+00
(PID.TID 0000.0001) %MON thSI_Tsrf_ave_S              =   0.0000000000000E+00
(PID.TID 0000.0001) %MON thSI_Tsrf_ave_N              =  -5.0556404701194E+00
(PID.TID 0000.0001) %MON thSI_Tsrf_min_S              =   0.0000000000000E+00
(PID.TID 0000.0001) %MON thSI_Tsrf_min_N              =  -5.3116692393106E+00
(PID.TID 0000.0001) %MON thSI_Tsrf_max_S              =   0.0000000000000E+00
(PID.TID 0000.0001) %MON thSI_Tsrf_max_N              =  -3.2785706562136E+00
(PID.TID 0000.0001) %MON thSI_Tic1_ave_G              =  -2.8474876750641E+00
(PID.TID 0000.0001) %MON thSI_Tic1_ave_S              =   0.0000000000000E+00
(PID.TID 0000.0001) %MON thSI_Tic1_ave_N              =  -2.8474876750641E+00
(PID.TID 0000.0001) %MON thSI_Tic1_min_S              =   0.0000000000000E+00
(PID.TID 0000.0001) %MON thSI_Tic1_min_N              =  -3.5964482668685E+00
(PID.TID 0000.0001) %MON thSI_Tic1_max_S              =   0.0000000000000E+00
(PID.TID 0000.0001) %MON thSI_Tic1_max_N              =  -2.7421318711883E+00
(PID.TID 0000.0001) %MON thSI_Tic2_ave_G              =  -1.9000953518840E+00
(PID.TID 0000.0001) %MON thSI_Tic2_ave_S              =   0.0000000000000E+00
(PID.TID 0000.0001) %MON thSI_Tic2_ave_N              =  -1.9000953518840E+00
(PID.TID 0000.0001) %MON thSI_Tic2_min_S              =   0.0000000000000E+00
(PID.TID 0000.0001) %MON thSI_Tic2_min_N              =  -2.2991950502527E+00
(PID.TID 0000.0001) %MON thSI_Tic2_max_S              =   0.0000000000000E+00
(PID.TID 0000.0001) %MON thSI_Tic2_max_N              =  -1.8333587728733E+00
(PID.TID 0000.0001) %MON thSI_TotEnerg_G              =  -2.2134574123661E+18
(PID.TID 0000.0001) // =======================================================
(PID.TID 0000.0001) // End MONITOR Therm.SeaIce statistics
(PID.TID 0000.0001) // =======================================================
 cg2d: Sum(rhs),rhsMax =  -3.66753738489933E-10  2.02040197564839E+04
(PID.TID 0000.0001)      cg2d_init_res =   2.12676472742860E+04
(PID.TID 0000.0001)      cg2d_iters(min,last) =      -1      16
(PID.TID 0000.0001)      cg2d_last_res =   6.88896270664251E-11
(PID.TID 0000.0001) // =======================================================
(PID.TID 0000.0001) // Begin MONITOR dynamic field statistics
(PID.TID 0000.0001) // =======================================================
(PID.TID 0000.0001) %MON time_tsnumber                =                     6
(PID.TID 0000.0001) %MON time_secondsf                =   2.7000000000000E+03
(PID.TID 0000.0001) %MON dynstat_eta_max              =   3.6201663881307E+03
(PID.TID 0000.0001) %MON dynstat_eta_min              =  -2.6502597870929E+03
(PID.TID 0000.0001) %MON dynstat_eta_mean             =  -5.6983234629540E-15
(PID.TID 0000.0001) %MON dynstat_eta_sd               =   3.2619289666312E+02
(PID.TID 0000.0001) %MON dynstat_eta_del2             =   5.0913389782412E+00
(PID.TID 0000.0001) %MON dynstat_uvel_max             =   7.8614473389718E+00
(PID.TID 0000.0001) %MON dynstat_uvel_min             =  -8.0027195881905E+00
(PID.TID 0000.0001) %MON dynstat_uvel_mean            =  -4.8594655821041E-03
(PID.TID 0000.0001) %MON dynstat_uvel_sd              =   7.2030149952668E-01
(PID.TID 0000.0001) %MON dynstat_uvel_del2            =   1.8075344198122E-03
(PID.TID 0000.0001) %MON dynstat_vvel_max             =   8.1945773621755E+00
(PID.TID 0000.0001) %MON dynstat_vvel_min             =  -8.7080244127589E+00
(PID.TID 0000.0001) %MON dynstat_vvel_mean            =   7.4250167215822E-03
(PID.TID 0000.0001) %MON dynstat_vvel_sd              =   6.9150979978828E-01
(PID.TID 0000.0001) %MON dynstat_vvel_del2            =   1.8319006008390E-03
(PID.TID 0000.0001) %MON dynstat_wvel_max             =   2.2444087455137E-01
(PID.TID 0000.0001) %MON dynstat_wvel_min             =  -4.6208251063665E-01
(PID.TID 0000.0001) %MON dynstat_wvel_mean            =  -2.2179340311817E-03
(PID.TID 0000.0001) %MON dynstat_wvel_sd              =   2.0797903695284E-02
(PID.TID 0000.0001) %MON dynstat_wvel_del2            =   2.4983033169458E-04
(PID.TID 0000.0001) %MON dynstat_theta_max            =   4.3814265430733E+02
(PID.TID 0000.0001) %MON dynstat_theta_min            =   2.8810526006252E+02
(PID.TID 0000.0001) %MON dynstat_theta_mean           =   3.3171554336358E+02
(PID.TID 0000.0001) %MON dynstat_theta_sd             =   4.7419071109424E+01
(PID.TID 0000.0001) %MON dynstat_theta_del2           =   1.1735634743202E-03
(PID.TID 0000.0001) %MON dynstat_salt_max             =   2.1961082385249E+00
(PID.TID 0000.0001) %MON dynstat_salt_min             =  -9.9324626976091E-04
(PID.TID 0000.0001) %MON dynstat_salt_mean            =   2.3357446562161E-02
(PID.TID 0000.0001) %MON dynstat_salt_sd              =   1.0026980658455E-01
(PID.TID 0000.0001) %MON dynstat_salt_del2            =   4.6275144747474E-04
(PID.TID 0000.0001) %MON trAdv_CFL_u_max              =   1.1546424652400E-02
(PID.TID 0000.0001) %MON trAdv_CFL_v_max              =   1.2696228004038E-02
(PID.TID 0000.0001) %MON trAdv_CFL_w_max              =   1.4214679422072E-02
(PID.TID 0000.0001) %MON advcfl_uvel_max              =   1.1507927032216E-02
(PID.TID 0000.0001) %MON advcfl_vvel_max              =   1.2407283110222E-02
(PID.TID 0000.0001) %MON advcfl_wvel_max              =   7.5613501740542E-03
(PID.TID 0000.0001) %MON advcfl_W_hf_max              =   1.4214679422072E-02
(PID.TID 0000.0001) %MON am_eta_mean                  =  -6.8497444394332E+08
(PID.TID 0000.0001) %MON am_uZo_mean                  =   6.6756575520480E+08
(PID.TID 0000.0001) %MON am_tot_mean                  =  -1.7408688738516E+07
(PID.TID 0000.0001) %MON pe_b_mean                    =  -6.2930946552805E-01
(PID.TID 0000.0001) %MON ke_max                       =   3.6328699643833E+01
(PID.TID 0000.0001) %MON ke_mean                      =   4.9561260693424E-01
(PID.TID 0000.0001) %MON ke_vol                       =   4.9523908919847E+19
(PID.TID 0000.0001) %MON vort_r_min                   =  -2.7974091871375E-05
(PID.TID 0000.0001) %MON vort_r_max                   =   1.3079130579111E-05
(PID.TID 0000.0001) %MON vort_a_mean                  =   6.7242814765355E-08
(PID.TID 0000.0001) %MON vort_a_sd                    =   8.3943236874824E-05
(PID.TID 0000.0001) %MON vort_p_mean                  =   6.8939448909966E-08
(PID.TID 0000.0001) %MON vort_p_sd                    =   9.1754068367831E-05
(PID.TID 0000.0001) %MON surfExpan_theta_mean         =   2.1569913457471E-01
(PID.TID 0000.0001) %MON surfExpan_salt_mean          =  -2.8384008022095E-05
(PID.TID 0000.0001) %MON surfExpan_Heat_mean          =  -1.7745469432233E+01
(PID.TID 0000.0001) %MON En_Budget_T2PE_mean          =   3.3613733207367E+01
(PID.TID 0000.0001) // =======================================================
(PID.TID 0000.0001) // End MONITOR dynamic field statistics
(PID.TID 0000.0001) // =======================================================
(PID.TID 0000.0001) // =======================================================
(PID.TID 0000.0001) // Begin MONITOR Land statistics
(PID.TID 0000.0001) // =======================================================
(PID.TID 0000.0001) %MON land_time_sec                =   2.7000000000000E+03
(PID.TID 0000.0001) %MON land_SnwH_ave_G              =   1.5324262457349E-01
(PID.TID 0000.0001) %MON land_SnwH_ave_S              =   5.5905822537355E-01
(PID.TID 0000.0001) %MON land_SnwH_ave_T              =   0.0000000000000E+00
(PID.TID 0000.0001) %MON land_SnwH_ave_N              =   1.2392943424907E-01
(PID.TID 0000.0001) %MON land_SnwH_max_S              =   9.9999692804260E-01
(PID.TID 0000.0001) %MON land_SnwH_max_T              =   0.0000000000000E+00
(PID.TID 0000.0001) %MON land_SnwH_max_N              =   9.9999951332468E-01
(PID.TID 0000.0001) %MON land_Tsrf_ave_G              =  -6.2127601849937E+00
(PID.TID 0000.0001) %MON land_Tsrf_ave_S              =  -5.8517130665888E+00
(PID.TID 0000.0001) %MON land_Tsrf_ave_T              =   1.4980618460285E+01
(PID.TID 0000.0001) %MON land_Tsrf_ave_N              =  -2.0482196643024E+01
(PID.TID 0000.0001) %MON land_Tsrf_min_S              =  -3.4022193752473E+01
(PID.TID 0000.0001) %MON land_Tsrf_min_T              =  -6.6032989282169E+00
(PID.TID 0000.0001) %MON land_Tsrf_min_N              =  -4.9117879573727E+01
(PID.TID 0000.0001) %MON land_Tsrf_max_S              =   2.6531850713093E+01
(PID.TID 0000.0001) %MON land_Tsrf_max_T              =   2.9108311036890E+01
(PID.TID 0000.0001) %MON land_Tsrf_max_N              =   1.2569778096608E+01
(PID.TID 0000.0001) %MON land_Tgr1_ave_G              =  -4.9070180028837E+00
(PID.TID 0000.0001) %MON land_Tgr1_ave_S              =  -5.3758530000970E+00
(PID.TID 0000.0001) %MON land_Tgr1_ave_T              =   1.4980618460285E+01
(PID.TID 0000.0001) %MON land_Tgr1_ave_N              =  -1.8035309531167E+01
(PID.TID 0000.0001) %MON land_Tgr1_min_S              =  -3.9058997186831E+01
(PID.TID 0000.0001) %MON land_Tgr1_min_T              =  -6.6032989282169E+00
(PID.TID 0000.0001) %MON land_Tgr1_min_N              =  -5.4932025050899E+01
(PID.TID 0000.0001) %MON land_Tgr1_max_S              =   2.6531850713093E+01
(PID.TID 0000.0001) %MON land_Tgr1_max_T              =   2.9108311036890E+01
(PID.TID 0000.0001) %MON land_Tgr1_max_N              =   1.2569778096608E+01
(PID.TID 0000.0001) %MON land_Tgr2_ave_G              =   4.2068321041659E+00
(PID.TID 0000.0001) %MON land_Tgr2_ave_S              =  -1.8730497341945E+01
(PID.TID 0000.0001) %MON land_Tgr2_ave_T              =   2.2012594602565E+01
(PID.TID 0000.0001) %MON land_Tgr2_ave_N              =  -2.4260252078150E-01
(PID.TID 0000.0001) %MON land_Tgr2_min_S              =  -6.4759691845951E+01
(PID.TID 0000.0001) %MON land_Tgr2_min_T              =  -9.7049153868680E+00
(PID.TID 0000.0001) %MON land_Tgr2_min_N              =  -4.0195064214873E+01
(PID.TID 0000.0001) %MON land_Tgr2_max_S              =   2.3360568370939E+01
(PID.TID 0000.0001) %MON land_Tgr2_max_T              =   3.1359218129024E+01
(PID.TID 0000.0001) %MON land_Tgr2_max_N              =   2.9830573186494E+01
(PID.TID 0000.0001) %MON land_TotEnerg_G              =  -6.2906404486281E+21
(PID.TID 0000.0001) %MON land_TotEnerg_S              =  -4.9964558314860E+21
(PID.TID 0000.0001) %MON land_TotEnerg_T              =   7.3185679943357E+21
(PID.TID 0000.0001) %MON land_TotEnerg_N              =  -8.6127526114777E+21
(PID.TID 0000.0001) %MON land_grdW_ave_G              =   4.8695067522784E-01
(PID.TID 0000.0001) %MON land_grdW_ave_S              =   3.0869685623035E-01
(PID.TID 0000.0001) %MON land_grdW_ave_T              =   5.6466415803982E-01
(PID.TID 0000.0001) %MON land_grdW_ave_N              =   4.9288034968558E-01
(PID.TID 0000.0001) %MON land_grdW_min_S              =   2.6060381012287E-02
(PID.TID 0000.0001) %MON land_grdW_min_T              =   0.0000000000000E+00
(PID.TID 0000.0001) %MON land_grdW_min_N              =   0.0000000000000E+00
(PID.TID 0000.0001) // =======================================================
(PID.TID 0000.0001) // End MONITOR Land statistics
(PID.TID 0000.0001) // =======================================================
(PID.TID 0000.0001) // =======================================================
(PID.TID 0000.0001) // Begin MONITOR Therm.SeaIce statistics
(PID.TID 0000.0001) // =======================================================
(PID.TID 0000.0001) %MON thSI_time_sec                =   2.7000000000000E+03
(PID.TID 0000.0001) %MON thSI_Ice_Area_G              =   8.7408915943705E+10
(PID.TID 0000.0001) %MON thSI_Ice_Area_S              =   0.0000000000000E+00
(PID.TID 0000.0001) %MON thSI_Ice_Area_N              =   8.7408915943705E+10
(PID.TID 0000.0001) %MON thSI_IceH_ave_G              =   1.0042806272320E-01
(PID.TID 0000.0001) %MON thSI_IceH_ave_S              =   0.0000000000000E+00
(PID.TID 0000.0001) %MON thSI_IceH_ave_N              =   1.0042806272320E-01
(PID.TID 0000.0001) %MON thSI_IceH_max_S              =   0.0000000000000E+00
(PID.TID 0000.0001) %MON thSI_IceH_max_N              =   1.1481593620036E-01
(PID.TID 0000.0001) %MON thSI_SnwH_ave_G              =   0.0000000000000E+00
(PID.TID 0000.0001) %MON thSI_SnwH_ave_S              =   0.0000000000000E+00
(PID.TID 0000.0001) %MON thSI_SnwH_ave_N              =   0.0000000000000E+00
(PID.TID 0000.0001) %MON thSI_SnwH_max_S              =   0.0000000000000E+00
(PID.TID 0000.0001) %MON thSI_SnwH_max_N              =   0.0000000000000E+00
(PID.TID 0000.0001) %MON thSI_Tsrf_ave_G              =  -5.3538997841311E+00
(PID.TID 0000.0001) %MON thSI_Tsrf_ave_S              =   0.0000000000000E+00
(PID.TID 0000.0001) %MON thSI_Tsrf_ave_N              =  -5.3538997841311E+00
(PID.TID 0000.0001) %MON thSI_Tsrf_min_S              =   0.0000000000000E+00
(PID.TID 0000.0001) %MON thSI_Tsrf_min_N              =  -5.6468808701434E+00
(PID.TID 0000.0001) %MON thSI_Tsrf_max_S              =   0.0000000000000E+00
(PID.TID 0000.0001) %MON thSI_Tsrf_max_N              =  -3.3168745109765E+00
(PID.TID 0000.0001) %MON thSI_Tic1_ave_G              =  -3.1630046514708E+00
(PID.TID 0000.0001) %MON thSI_Tic1_ave_S              =   0.0000000000000E+00
(PID.TID 0000.0001) %MON thSI_Tic1_ave_N              =  -3.1630046514708E+00
(PID.TID 0000.0001) %MON thSI_Tic1_min_S              =   0.0000000000000E+00
(PID.TID 0000.0001) %MON thSI_Tic1_min_N              =  -3.7574596234717E+00
(PID.TID 0000.0001) %MON thSI_Tic1_max_S              =   0.0000000000000E+00
(PID.TID 0000.0001) %MON thSI_Tic1_max_N              =  -2.9080383617969E+00
(PID.TID 0000.0001) %MON thSI_Tic2_ave_G              =  -1.9809205558733E+00
(PID.TID 0000.0001) %MON thSI_Tic2_ave_S              =   0.0000000000000E+00
(PID.TID 0000.0001) %MON thSI_Tic2_ave_N              =  -1.9809205558733E+00
(PID.TID 0000.0001) %MON thSI_Tic2_min_S              =   0.0000000000000E+00
(PID.TID 0000.0001) %MON thSI_Tic2_min_N              =  -2.3583139265002E+00
(PID.TID 0000.0001) %MON thSI_Tic2_max_S              =   0.0000000000000E+00
(PID.TID 0000.0001) %MON thSI_Tic2_max_N              =  -1.9143751236801E+00
(PID.TID 0000.0001) %MON thSI_TotEnerg_G              =  -2.6595555262879E+18
(PID.TID 0000.0001) // =======================================================
(PID.TID 0000.0001) // End MONITOR Therm.SeaIce statistics
(PID.TID 0000.0001) // =======================================================
 cg2d: Sum(rhs),rhsMax =  -5.45696821063757E-12  2.12746634994201E+04
(PID.TID 0000.0001)      cg2d_init_res =   2.01202103135312E+04
(PID.TID 0000.0001)      cg2d_iters(min,last) =      -1      16
(PID.TID 0000.0001)      cg2d_last_res =   6.99988198393033E-11
(PID.TID 0000.0001) // =======================================================
(PID.TID 0000.0001) // Begin MONITOR dynamic field statistics
(PID.TID 0000.0001) // =======================================================
(PID.TID 0000.0001) %MON time_tsnumber                =                     7
(PID.TID 0000.0001) %MON time_secondsf                =   3.1500000000000E+03
(PID.TID 0000.0001) %MON dynstat_eta_max              =   3.8390691847761E+03
(PID.TID 0000.0001) %MON dynstat_eta_min              =  -2.5741427764730E+03
(PID.TID 0000.0001) %MON dynstat_eta_mean             =  -1.8437967328369E-14
(PID.TID 0000.0001) %MON dynstat_eta_sd               =   3.5865304772531E+02
(PID.TID 0000.0001) %MON dynstat_eta_del2             =   4.8142373724736E+00
(PID.TID 0000.0001) %MON dynstat_uvel_max             =   7.7002316030642E+00
(PID.TID 0000.0001) %MON dynstat_uvel_min             =  -8.2661705165094E+00
(PID.TID 0000.0001) %MON dynstat_uvel_mean            =  -5.5128926200544E-03
(PID.TID 0000.0001) %MON dynstat_uvel_sd              =   7.4836307992280E-01
(PID.TID 0000.0001) %MON dynstat_uvel_del2            =   1.7976681870647E-03
(PID.TID 0000.0001) %MON dynstat_vvel_max             =   8.3884112799622E+00
(PID.TID 0000.0001) %MON dynstat_vvel_min             =  -8.6325264320056E+00
(PID.TID 0000.0001) %MON dynstat_vvel_mean            =   8.9235221621033E-03
(PID.TID 0000.0001) %MON dynstat_vvel_sd              =   7.4038136002958E-01
(PID.TID 0000.0001) %MON dynstat_vvel_del2            =   1.8994782673477E-03
(PID.TID 0000.0001) %MON dynstat_wvel_max             =   2.6324294090777E-01
(PID.TID 0000.0001) %MON dynstat_wvel_min             =  -4.2553794007521E-01
(PID.TID 0000.0001) %MON dynstat_wvel_mean            =  -2.0369845072123E-03
(PID.TID 0000.0001) %MON dynstat_wvel_sd              =   2.1425131179824E-02
(PID.TID 0000.0001) %MON dynstat_wvel_del2            =   2.5059068129770E-04
(PID.TID 0000.0001) %MON dynstat_theta_max            =   4.3854864883930E+02
(PID.TID 0000.0001) %MON dynstat_theta_min            =   2.8786123912256E+02
(PID.TID 0000.0001) %MON dynstat_theta_mean           =   3.3171468516639E+02
(PID.TID 0000.0001) %MON dynstat_theta_sd             =   4.7420286850888E+01
(PID.TID 0000.0001) %MON dynstat_theta_del2           =   1.4633854505795E-03
(PID.TID 0000.0001) %MON dynstat_salt_max             =   2.4389287000047E+00
(PID.TID 0000.0001) %MON dynstat_salt_min             =  -1.1655889823547E-03
(PID.TID 0000.0001) %MON dynstat_salt_mean            =   2.7100220379550E-02
(PID.TID 0000.0001) %MON dynstat_salt_sd              =   1.1590357606115E-01
(PID.TID 0000.0001) %MON dynstat_salt_del2            =   5.1401377674755E-04
(PID.TID 0000.0001) %MON trAdv_CFL_u_max              =   1.1703047865950E-02
(PID.TID 0000.0001) %MON trAdv_CFL_v_max              =   1.2601860279304E-02
(PID.TID 0000.0001) %MON trAdv_CFL_w_max              =   1.4973217608953E-02
(PID.TID 0000.0001) %MON advcfl_uvel_max              =   1.1886770002566E-02
(PID.TID 0000.0001) %MON advcfl_vvel_max              =   1.2324180339334E-02
(PID.TID 0000.0001) %MON advcfl_wvel_max              =   6.9633481103217E-03
(PID.TID 0000.0001) %MON advcfl_W_hf_max              =   1.4973217608953E-02
(PID.TID 0000.0001) %MON am_eta_mean                  =  -9.5905042156074E+08
(PID.TID 0000.0001) %MON am_uZo_mean                  =   9.4121567514820E+08
(PID.TID 0000.0001) %MON am_tot_mean                  =  -1.7834746412547E+07
(PID.TID 0000.0001) %MON pe_b_mean                    =  -6.8847018347477E-01
(PID.TID 0000.0001) %MON ke_max                       =   3.7814819973423E+01
(PID.TID 0000.0001) %MON ke_mean                      =   5.5089761627870E-01
(PID.TID 0000.0001) %MON ke_vol                       =   4.9523908919847E+19
(PID.TID 0000.0001) %MON vort_r_min                   =  -2.9623358874883E-05
(PID.TID 0000.0001) %MON vort_r_max                   =   1.3375622013472E-05
(PID.TID 0000.0001) %MON vort_a_mean                  =   6.7242814765345E-08
(PID.TID 0000.0001) %MON vort_a_sd                    =   8.3945272394649E-05
(PID.TID 0000.0001) %MON vort_p_mean                  =   6.8939448964379E-08
(PID.TID 0000.0001) %MON vort_p_sd                    =   9.1786092409001E-05
(PID.TID 0000.0001) %MON surfExpan_theta_mean         =   1.9916055233421E-01
(PID.TID 0000.0001) %MON surfExpan_salt_mean          =  -4.3347855701472E-05
(PID.TID 0000.0001) %MON surfExpan_Heat_mean          =  -1.6339488874041E+01
(PID.TID 0000.0001) %MON En_Budget_T2PE_mean          =   3.0931120586332E+01
(PID.TID 0000.0001) // =======================================================
(PID.TID 0000.0001) // End MONITOR dynamic field statistics
(PID.TID 0000.0001) // =======================================================
(PID.TID 0000.0001) // =======================================================
(PID.TID 0000.0001) // Begin MONITOR Land statistics
(PID.TID 0000.0001) // =======================================================
(PID.TID 0000.0001) %MON land_time_sec                =   3.1500000000000E+03
(PID.TID 0000.0001) %MON land_SnwH_ave_G              =   1.5324152121486E-01
(PID.TID 0000.0001) %MON land_SnwH_ave_S              =   5.5905729749380E-01
(PID.TID 0000.0001) %MON land_SnwH_ave_T              =   0.0000000000000E+00
(PID.TID 0000.0001) %MON land_SnwH_ave_N              =   1.2392753717571E-01
(PID.TID 0000.0001) %MON land_SnwH_max_S              =   9.9999635968491E-01
(PID.TID 0000.0001) %MON land_SnwH_max_T              =   0.0000000000000E+00
(PID.TID 0000.0001) %MON land_SnwH_max_N              =   9.9999942069591E-01
(PID.TID 0000.0001) %MON land_Tsrf_ave_G              =  -6.4348008550802E+00
(PID.TID 0000.0001) %MON land_Tsrf_ave_S              =  -5.8976519244780E+00
(PID.TID 0000.0001) %MON land_Tsrf_ave_T              =   1.4434031036787E+01
(PID.TID 0000.0001) %MON land_Tsrf_ave_N              =  -2.0544640890811E+01
(PID.TID 0000.0001) %MON land_Tsrf_min_S              =  -3.3709841950514E+01
(PID.TID 0000.0001) %MON land_Tsrf_min_T              =  -6.3944845579780E+00
(PID.TID 0000.0001) %MON land_Tsrf_min_N              =  -4.9241432313359E+01
(PID.TID 0000.0001) %MON land_Tsrf_max_S              =   2.5788572838041E+01
(PID.TID 0000.0001) %MON land_Tsrf_max_T              =   2.8147973559098E+01
(PID.TID 0000.0001) %MON land_Tsrf_max_N              =   1.2189804881753E+01
(PID.TID 0000.0001) %MON land_Tgr1_ave_G              =  -5.1586621355915E+00
(PID.TID 0000.0001) %MON land_Tgr1_ave_S              =  -5.5927167680002E+00
(PID.TID 0000.0001) %MON land_Tgr1_ave_T              =   1.4434031036787E+01
(PID.TID 0000.0001) %MON land_Tgr1_ave_N              =  -1.8101281746841E+01
(PID.TID 0000.0001) %MON land_Tgr1_min_S              =  -3.9070331263785E+01
(PID.TID 0000.0001) %MON land_Tgr1_min_T              =  -6.3944845579780E+00
(PID.TID 0000.0001) %MON land_Tgr1_min_N              =  -5.4916436164163E+01
(PID.TID 0000.0001) %MON land_Tgr1_max_S              =   2.5788572838041E+01
(PID.TID 0000.0001) %MON land_Tgr1_max_T              =   2.8147973559098E+01
(PID.TID 0000.0001) %MON land_Tgr1_max_N              =   1.2189804881753E+01
(PID.TID 0000.0001) %MON land_Tgr2_ave_G              =   4.2066895997452E+00
(PID.TID 0000.0001) %MON land_Tgr2_ave_S              =  -1.8730278565928E+01
(PID.TID 0000.0001) %MON land_Tgr2_ave_T              =   2.2012469116003E+01
(PID.TID 0000.0001) %MON land_Tgr2_ave_N              =  -2.4287358640050E-01
(PID.TID 0000.0001) %MON land_Tgr2_min_S              =  -6.4759258502966E+01
(PID.TID 0000.0001) %MON land_Tgr2_min_T              =  -9.7048735579805E+00
(PID.TID 0000.0001) %MON land_Tgr2_min_N              =  -4.0195304051673E+01
(PID.TID 0000.0001) %MON land_Tgr2_max_S              =   2.3360603552575E+01
(PID.TID 0000.0001) %MON land_Tgr2_max_T              =   3.1358885843509E+01
(PID.TID 0000.0001) %MON land_Tgr2_max_N              =   2.9830173203700E+01
(PID.TID 0000.0001) %MON land_TotEnerg_G              =  -6.2970769199670E+21
(PID.TID 0000.0001) %MON land_TotEnerg_S              =  -4.9971886877879E+21
(PID.TID 0000.0001) %MON land_TotEnerg_T              =   7.3137994726532E+21
(PID.TID 0000.0001) %MON land_TotEnerg_N              =  -8.6136877048322E+21
(PID.TID 0000.0001) %MON land_grdW_ave_G              =   4.8693642109980E-01
(PID.TID 0000.0001) %MON land_grdW_ave_S              =   3.0868560830210E-01
(PID.TID 0000.0001) %MON land_grdW_ave_T              =   5.6462763782831E-01
(PID.TID 0000.0001) %MON land_grdW_ave_N              =   4.9287998900036E-01
(PID.TID 0000.0001) %MON land_grdW_min_S              =   2.6110074806104E-02
(PID.TID 0000.0001) %MON land_grdW_min_T              =   0.0000000000000E+00
(PID.TID 0000.0001) %MON land_grdW_min_N              =   0.0000000000000E+00
(PID.TID 0000.0001) // =======================================================
(PID.TID 0000.0001) // End MONITOR Land statistics
(PID.TID 0000.0001) // =======================================================
(PID.TID 0000.0001) // =======================================================
(PID.TID 0000.0001) // Begin MONITOR Therm.SeaIce statistics
(PID.TID 0000.0001) // =======================================================
(PID.TID 0000.0001) %MON thSI_time_sec                =   3.1500000000000E+03
(PID.TID 0000.0001) %MON thSI_Ice_Area_G              =   9.9885233136722E+10
(PID.TID 0000.0001) %MON thSI_Ice_Area_S              =   0.0000000000000E+00
(PID.TID 0000.0001) %MON thSI_Ice_Area_N              =   9.9885233136722E+10
(PID.TID 0000.0001) %MON thSI_IceH_ave_G              =   1.0245843897363E-01
(PID.TID 0000.0001) %MON thSI_IceH_ave_S              =   0.0000000000000E+00
(PID.TID 0000.0001) %MON thSI_IceH_ave_N              =   1.0245843897363E-01
(PID.TID 0000.0001) %MON thSI_IceH_max_S              =   0.0000000000000E+00
(PID.TID 0000.0001) %MON thSI_IceH_max_N              =   1.1774752366523E-01
(PID.TID 0000.0001) %MON thSI_SnwH_ave_G              =   0.0000000000000E+00
(PID.TID 0000.0001) %MON thSI_SnwH_ave_S              =   0.0000000000000E+00
(PID.TID 0000.0001) %MON thSI_SnwH_ave_N              =   0.0000000000000E+00
(PID.TID 0000.0001) %MON thSI_SnwH_max_S              =   0.0000000000000E+00
(PID.TID 0000.0001) %MON thSI_SnwH_max_N              =   0.0000000000000E+00
(PID.TID 0000.0001) %MON thSI_Tsrf_ave_G              =  -5.6398983582927E+00
(PID.TID 0000.0001) %MON thSI_Tsrf_ave_S              =   0.0000000000000E+00
(PID.TID 0000.0001) %MON thSI_Tsrf_ave_N              =  -5.6398983582927E+00
(PID.TID 0000.0001) %MON thSI_Tsrf_min_S              =   0.0000000000000E+00
(PID.TID 0000.0001) %MON thSI_Tsrf_min_N              =  -5.9723403083886E+00
(PID.TID 0000.0001) %MON thSI_Tsrf_max_S              =   0.0000000000000E+00
(PID.TID 0000.0001) %MON thSI_Tsrf_max_N              =  -3.3495954293074E+00
(PID.TID 0000.0001) %MON thSI_Tic1_ave_G              =  -3.4694906675329E+00
(PID.TID 0000.0001) %MON thSI_Tic1_ave_S              =   0.0000000000000E+00
(PID.TID 0000.0001) %MON thSI_Tic1_ave_N              =  -3.4694906675329E+00
(PID.TID 0000.0001) %MON thSI_Tic1_min_S              =   0.0000000000000E+00
(PID.TID 0000.0001) %MON thSI_Tic1_min_N              =  -3.8591842912107E+00
(PID.TID 0000.0001) %MON thSI_Tic1_max_S              =   0.0000000000000E+00
(PID.TID 0000.0001) %MON thSI_Tic1_max_N              =  -2.9331117977722E+00
(PID.TID 0000.0001) %MON thSI_Tic2_ave_G              =  -2.0635396345124E+00
(PID.TID 0000.0001) %MON thSI_Tic2_ave_S              =   0.0000000000000E+00
(PID.TID 0000.0001) %MON thSI_Tic2_ave_N              =  -2.0635396345124E+00
(PID.TID 0000.0001) %MON thSI_Tic2_min_S              =   0.0000000000000E+00
(PID.TID 0000.0001) %MON thSI_Tic2_min_N              =  -2.3956735543662E+00
(PID.TID 0000.0001) %MON thSI_Tic2_max_S              =   0.0000000000000E+00
(PID.TID 0000.0001) %MON thSI_Tic2_max_N              =  -1.9984530857673E+00
(PID.TID 0000.0001) %MON thSI_TotEnerg_G              =  -3.1065833587276E+18
(PID.TID 0000.0001) // =======================================================
(PID.TID 0000.0001) // End MONITOR Therm.SeaIce statistics
(PID.TID 0000.0001) // =======================================================
 cg2d: Sum(rhs),rhsMax =  -5.13864506501704E-11  2.13103561771249E+04
(PID.TID 0000.0001)      cg2d_init_res =   1.92450846844502E+04
(PID.TID 0000.0001)      cg2d_iters(min,last) =      -1      16
(PID.TID 0000.0001)      cg2d_last_res =   7.37779253856553E-11
(PID.TID 0000.0001) // =======================================================
(PID.TID 0000.0001) // Begin MONITOR dynamic field statistics
(PID.TID 0000.0001) // =======================================================
(PID.TID 0000.0001) %MON time_tsnumber                =                     8
(PID.TID 0000.0001) %MON time_secondsf                =   3.6000000000000E+03
(PID.TID 0000.0001) %MON dynstat_eta_max              =   3.8823435197941E+03
(PID.TID 0000.0001) %MON dynstat_eta_min              =  -2.3826492158060E+03
(PID.TID 0000.0001) %MON dynstat_eta_mean             =  -5.8112858223517E-15
(PID.TID 0000.0001) %MON dynstat_eta_sd               =   3.8710397624622E+02
(PID.TID 0000.0001) %MON dynstat_eta_del2             =   4.6158809798210E+00
(PID.TID 0000.0001) %MON dynstat_uvel_max             =   7.4329531583972E+00
(PID.TID 0000.0001) %MON dynstat_uvel_min             =  -8.3641603432945E+00
(PID.TID 0000.0001) %MON dynstat_uvel_mean            =  -6.1314132320716E-03
(PID.TID 0000.0001) %MON dynstat_uvel_sd              =   7.6553800459384E-01
(PID.TID 0000.0001) %MON dynstat_uvel_del2            =   1.7499647547036E-03
(PID.TID 0000.0001) %MON dynstat_vvel_max             =   8.5882741408358E+00
(PID.TID 0000.0001) %MON dynstat_vvel_min             =  -8.9843927912203E+00
(PID.TID 0000.0001) %MON dynstat_vvel_mean            =   1.0483394575471E-02
(PID.TID 0000.0001) %MON dynstat_vvel_sd              =   7.8001155942228E-01
(PID.TID 0000.0001) %MON dynstat_vvel_del2            =   1.9087805554664E-03
(PID.TID 0000.0001) %MON dynstat_wvel_max             =   2.8889817211406E-01
(PID.TID 0000.0001) %MON dynstat_wvel_min             =  -3.9391435497172E-01
(PID.TID 0000.0001) %MON dynstat_wvel_mean            =  -1.8659006133144E-03
(PID.TID 0000.0001) %MON dynstat_wvel_sd              =   2.1613365041723E-02
(PID.TID 0000.0001) %MON dynstat_wvel_del2            =   2.3768327276796E-04
(PID.TID 0000.0001) %MON dynstat_theta_max            =   4.3892123013872E+02
(PID.TID 0000.0001) %MON dynstat_theta_min            =   2.8761640419999E+02
(PID.TID 0000.0001) %MON dynstat_theta_mean           =   3.3171366758586E+02
(PID.TID 0000.0001) %MON dynstat_theta_sd             =   4.7421637768331E+01
(PID.TID 0000.0001) %MON dynstat_theta_del2           =   1.7193431539128E-03
(PID.TID 0000.0001) %MON dynstat_salt_max             =   2.6584839366782E+00
(PID.TID 0000.0001) %MON dynstat_salt_min             =  -1.4431664263594E-03
(PID.TID 0000.0001) %MON dynstat_salt_mean            =   3.0810244741599E-02
(PID.TID 0000.0001) %MON dynstat_salt_sd              =   1.3132885483162E-01
(PID.TID 0000.0001) %MON dynstat_salt_del2            =   5.6086431538258E-04
(PID.TID 0000.0001) %MON trAdv_CFL_u_max              =   1.1647620842322E-02
(PID.TID 0000.0001) %MON trAdv_CFL_v_max              =   1.2403228686278E-02
(PID.TID 0000.0001) %MON trAdv_CFL_w_max              =   1.5202988544099E-02
(PID.TID 0000.0001) %MON advcfl_uvel_max              =   1.2027679572633E-02
(PID.TID 0000.0001) %MON advcfl_vvel_max              =   1.2888138240181E-02
(PID.TID 0000.0001) %MON advcfl_wvel_max              =   7.1474418762278E-03
(PID.TID 0000.0001) %MON advcfl_W_hf_max              =   1.5202988544099E-02
(PID.TID 0000.0001) %MON am_eta_mean                  =  -1.2766700332597E+09
(PID.TID 0000.0001) %MON am_uZo_mean                  =   1.2584280769701E+09
(PID.TID 0000.0001) %MON am_tot_mean                  =  -1.8241956289641E+07
(PID.TID 0000.0001) %MON pe_b_mean                    =  -7.3468026905183E-01
(PID.TID 0000.0001) %MON ke_max                       =   3.8391538501817E+01
(PID.TID 0000.0001) %MON ke_mean                      =   5.9379048331226E-01
(PID.TID 0000.0001) %MON ke_vol                       =   4.9523908919847E+19
(PID.TID 0000.0001) %MON vort_r_min                   =  -3.1025728534581E-05
(PID.TID 0000.0001) %MON vort_r_max                   =   1.5059509513300E-05
(PID.TID 0000.0001) %MON vort_a_mean                  =   6.7242814765303E-08
(PID.TID 0000.0001) %MON vort_a_sd                    =   8.3947473147647E-05
(PID.TID 0000.0001) %MON vort_p_mean                  =   6.8939449192403E-08
(PID.TID 0000.0001) %MON vort_p_sd                    =   9.1816690342362E-05
(PID.TID 0000.0001) %MON surfExpan_theta_mean         =   1.8310502137160E-01
(PID.TID 0000.0001) %MON surfExpan_salt_mean          =  -6.0723840589229E-05
(PID.TID 0000.0001) %MON surfExpan_Heat_mean          =  -1.4998333326033E+01
(PID.TID 0000.0001) %MON En_Budget_T2PE_mean          =   2.8361841861548E+01
(PID.TID 0000.0001) // =======================================================
(PID.TID 0000.0001) // End MONITOR dynamic field statistics
(PID.TID 0000.0001) // =======================================================
(PID.TID 0000.0001) // =======================================================
(PID.TID 0000.0001) // Begin MONITOR Land statistics
(PID.TID 0000.0001) // =======================================================
(PID.TID 0000.0001) %MON land_time_sec                =   3.6000000000000E+03
(PID.TID 0000.0001) %MON land_SnwH_ave_G              =   1.5324043467180E-01
(PID.TID 0000.0001) %MON land_SnwH_ave_S              =   5.5905633959022E-01
(PID.TID 0000.0001) %MON land_SnwH_ave_T              =   0.0000000000000E+00
(PID.TID 0000.0001) %MON land_SnwH_ave_N              =   1.2392568334128E-01
(PID.TID 0000.0001) %MON land_SnwH_max_S              =   9.9999576619351E-01
(PID.TID 0000.0001) %MON land_SnwH_max_T              =   0.0000000000000E+00
(PID.TID 0000.0001) %MON land_SnwH_max_N              =   9.9999933194307E-01
(PID.TID 0000.0001) %MON land_Tsrf_ave_G              =  -6.6368990116405E+00
(PID.TID 0000.0001) %MON land_Tsrf_ave_S              =  -5.9476724965683E+00
(PID.TID 0000.0001) %MON land_Tsrf_ave_T              =   1.3944944249277E+01
(PID.TID 0000.0001) %MON land_Tsrf_ave_N              =  -2.0604429521593E+01
(PID.TID 0000.0001) %MON land_Tsrf_min_S              =  -3.3354753471360E+01
(PID.TID 0000.0001) %MON land_Tsrf_min_T              =  -6.1936432850872E+00
(PID.TID 0000.0001) %MON land_Tsrf_min_N              =  -4.9431597833931E+01
(PID.TID 0000.0001) %MON land_Tsrf_max_S              =   2.5124486384600E+01
(PID.TID 0000.0001) %MON land_Tsrf_max_T              =   2.7280619934505E+01
(PID.TID 0000.0001) %MON land_Tsrf_max_N              =   1.1880900369721E+01
(PID.TID 0000.0001) %MON land_Tgr1_ave_G              =  -5.3854397228714E+00
(PID.TID 0000.0001) %MON land_Tgr1_ave_S              =  -5.7856524847056E+00
(PID.TID 0000.0001) %MON land_Tgr1_ave_T              =   1.3944944249277E+01
(PID.TID 0000.0001) %MON land_Tgr1_ave_N              =  -1.8163875061202E+01
(PID.TID 0000.0001) %MON land_Tgr1_min_S              =  -3.9081279800874E+01
(PID.TID 0000.0001) %MON land_Tgr1_min_T              =  -6.1936432850872E+00
(PID.TID 0000.0001) %MON land_Tgr1_min_N              =  -5.4901058151749E+01
(PID.TID 0000.0001) %MON land_Tgr1_max_S              =   2.5124486384600E+01
(PID.TID 0000.0001) %MON land_Tgr1_max_T              =   2.7280619934505E+01
(PID.TID 0000.0001) %MON land_Tgr1_max_N              =   1.1880900369721E+01
(PID.TID 0000.0001) %MON land_Tgr2_ave_G              =   4.2065434113211E+00
(PID.TID 0000.0001) %MON land_Tgr2_ave_S              =  -1.8730062859445E+01
(PID.TID 0000.0001) %MON land_Tgr2_ave_T              =   2.2012335850845E+01
(PID.TID 0000.0001) %MON land_Tgr2_ave_N              =  -2.4314580110396E-01
(PID.TID 0000.0001) %MON land_Tgr2_min_S              =  -6.4758825368060E+01
(PID.TID 0000.0001) %MON land_Tgr2_min_T              =  -9.7048291918431E+00
(PID.TID 0000.0001) %MON land_Tgr2_min_N              =  -4.0195543620336E+01
(PID.TID 0000.0001) %MON land_Tgr2_max_S              =   2.3360626808628E+01
(PID.TID 0000.0001) %MON land_Tgr2_max_T              =   3.1358543373235E+01
(PID.TID 0000.0001) %MON land_Tgr2_max_N              =   2.9829763703006E+01
(PID.TID 0000.0001) %MON land_TotEnerg_G              =  -6.3028956804949E+21
(PID.TID 0000.0001) %MON land_TotEnerg_S              =  -4.9978379154076E+21
(PID.TID 0000.0001) %MON land_TotEnerg_T              =   7.3095365464331E+21
(PID.TID 0000.0001) %MON land_TotEnerg_N              =  -8.6145943115204E+21
(PID.TID 0000.0001) %MON land_grdW_ave_G              =   4.8692291796233E-01
(PID.TID 0000.0001) %MON land_grdW_ave_S              =   3.0867477130457E-01
(PID.TID 0000.0001) %MON land_grdW_ave_T              =   5.6459314512174E-01
(PID.TID 0000.0001) %MON land_grdW_ave_N              =   4.9287963720029E-01
(PID.TID 0000.0001) %MON land_grdW_min_S              =   2.6165485091755E-02
(PID.TID 0000.0001) %MON land_grdW_min_T              =   0.0000000000000E+00
(PID.TID 0000.0001) %MON land_grdW_min_N              =   0.0000000000000E+00
(PID.TID 0000.0001) // =======================================================
(PID.TID 0000.0001) // End MONITOR Land statistics
(PID.TID 0000.0001) // =======================================================
(PID.TID 0000.0001) // =======================================================
(PID.TID 0000.0001) // Begin MONITOR Therm.SeaIce statistics
(PID.TID 0000.0001) // =======================================================
(PID.TID 0000.0001) %MON thSI_time_sec                =   3.6000000000000E+03
(PID.TID 0000.0001) %MON thSI_Ice_Area_G              =   1.1187773300892E+11
(PID.TID 0000.0001) %MON thSI_Ice_Area_S              =   0.0000000000000E+00
(PID.TID 0000.0001) %MON thSI_Ice_Area_N              =   1.1187773300892E+11
(PID.TID 0000.0001) %MON thSI_IceH_ave_G              =   1.0448282500365E-01
(PID.TID 0000.0001) %MON thSI_IceH_ave_S              =   0.0000000000000E+00
(PID.TID 0000.0001) %MON thSI_IceH_ave_N              =   1.0448282500365E-01
(PID.TID 0000.0001) %MON thSI_IceH_max_S              =   0.0000000000000E+00
(PID.TID 0000.0001) %MON thSI_IceH_max_N              =   1.2066862396408E-01
(PID.TID 0000.0001) %MON thSI_SnwH_ave_G              =   0.0000000000000E+00
(PID.TID 0000.0001) %MON thSI_SnwH_ave_S              =   0.0000000000000E+00
(PID.TID 0000.0001) %MON thSI_SnwH_ave_N              =   0.0000000000000E+00
(PID.TID 0000.0001) %MON thSI_SnwH_max_S              =   0.0000000000000E+00
(PID.TID 0000.0001) %MON thSI_SnwH_max_N              =   0.0000000000000E+00
(PID.TID 0000.0001) %MON thSI_Tsrf_ave_G              =  -5.9110554677290E+00
(PID.TID 0000.0001) %MON thSI_Tsrf_ave_S              =   0.0000000000000E+00
(PID.TID 0000.0001) %MON thSI_Tsrf_ave_N              =  -5.9110554677290E+00
(PID.TID 0000.0001) %MON thSI_Tsrf_min_S              =   0.0000000000000E+00
(PID.TID 0000.0001) %MON thSI_Tsrf_min_N              =  -6.2829747945408E+00
(PID.TID 0000.0001) %MON thSI_Tsrf_max_S              =   0.0000000000000E+00
(PID.TID 0000.0001) %MON thSI_Tsrf_max_N              =  -3.3800593373195E+00
(PID.TID 0000.0001) %MON thSI_Tic1_ave_G              =  -3.7620583250973E+00
(PID.TID 0000.0001) %MON thSI_Tic1_ave_S              =   0.0000000000000E+00
(PID.TID 0000.0001) %MON thSI_Tic1_ave_N              =  -3.7620583250973E+00
(PID.TID 0000.0001) %MON thSI_Tic1_min_S              =   0.0000000000000E+00
(PID.TID 0000.0001) %MON thSI_Tic1_min_N              =  -3.9266065986231E+00
(PID.TID 0000.0001) %MON thSI_Tic1_max_S              =   0.0000000000000E+00
(PID.TID 0000.0001) %MON thSI_Tic1_max_N              =  -2.9560886019938E+00
(PID.TID 0000.0001) %MON thSI_Tic2_ave_G              =  -2.1457902500030E+00
(PID.TID 0000.0001) %MON thSI_Tic2_ave_S              =   0.0000000000000E+00
(PID.TID 0000.0001) %MON thSI_Tic2_ave_N              =  -2.1457902500030E+00
(PID.TID 0000.0001) %MON thSI_Tic2_min_S              =   0.0000000000000E+00
(PID.TID 0000.0001) %MON thSI_Tic2_min_N              =  -2.4201883257111E+00
(PID.TID 0000.0001) %MON thSI_Tic2_max_S              =   0.0000000000000E+00
(PID.TID 0000.0001) %MON thSI_Tic2_max_N              =  -2.0831301167370E+00
(PID.TID 0000.0001) %MON thSI_TotEnerg_G              =  -3.5544693226062E+18
(PID.TID 0000.0001) // =======================================================
(PID.TID 0000.0001) // End MONITOR Therm.SeaIce statistics
(PID.TID 0000.0001) // =======================================================
(PID.TID 0000.0001)   Exporting atmospheric surf fluxes at iter=         8
(PID.TID 0000.0001)   Importing  oceanic surface fields at iter=         8
 cg2d: Sum(rhs),rhsMax =  -1.82353687705472E-10  2.07145612868626E+04
(PID.TID 0000.0001)      cg2d_init_res =   1.85114849467551E+04
(PID.TID 0000.0001)      cg2d_iters(min,last) =      -1      16
(PID.TID 0000.0001)      cg2d_last_res =   8.00516242153825E-11
(PID.TID 0000.0001) // =======================================================
(PID.TID 0000.0001) // Begin MONITOR dynamic field statistics
(PID.TID 0000.0001) // =======================================================
(PID.TID 0000.0001) %MON time_tsnumber                =                     9
(PID.TID 0000.0001) %MON time_secondsf                =   4.0500000000000E+03
(PID.TID 0000.0001) %MON dynstat_eta_max              =   3.8107786757481E+03
(PID.TID 0000.0001) %MON dynstat_eta_min              =  -2.1888993939968E+03
(PID.TID 0000.0001) %MON dynstat_eta_mean             =  -1.2551373266418E-15
(PID.TID 0000.0001) %MON dynstat_eta_sd               =   4.1280588044605E+02
(PID.TID 0000.0001) %MON dynstat_eta_del2             =   4.5246280327555E+00
(PID.TID 0000.0001) %MON dynstat_uvel_max             =   7.0764004995084E+00
(PID.TID 0000.0001) %MON dynstat_uvel_min             =  -8.3299048245117E+00
(PID.TID 0000.0001) %MON dynstat_uvel_mean            =  -6.7254805095066E-03
(PID.TID 0000.0001) %MON dynstat_uvel_sd              =   7.7454289770605E-01
(PID.TID 0000.0001) %MON dynstat_uvel_del2            =   1.6797318555537E-03
(PID.TID 0000.0001) %MON dynstat_vvel_max             =   8.7616879702670E+00
(PID.TID 0000.0001) %MON dynstat_vvel_min             =  -9.4151963956356E+00
(PID.TID 0000.0001) %MON dynstat_vvel_mean            =   1.2083661751000E-02
(PID.TID 0000.0001) %MON dynstat_vvel_sd              =   8.0895664841194E-01
(PID.TID 0000.0001) %MON dynstat_vvel_del2            =   1.8645832078510E-03
(PID.TID 0000.0001) %MON dynstat_wvel_max             =   2.8365455666554E-01
(PID.TID 0000.0001) %MON dynstat_wvel_min             =  -3.6668703941230E-01
(PID.TID 0000.0001) %MON dynstat_wvel_mean            =  -1.7072247979136E-03
(PID.TID 0000.0001) %MON dynstat_wvel_sd              =   2.1337590172993E-02
(PID.TID 0000.0001) %MON dynstat_wvel_del2            =   2.1686073712412E-04
(PID.TID 0000.0001) %MON dynstat_theta_max            =   4.3927575199266E+02
(PID.TID 0000.0001) %MON dynstat_theta_min            =   2.8737099830577E+02
(PID.TID 0000.0001) %MON dynstat_theta_mean           =   3.3171251743742E+02
(PID.TID 0000.0001) %MON dynstat_theta_sd             =   4.7423098716484E+01
(PID.TID 0000.0001) %MON dynstat_theta_del2           =   1.9299627058058E-03
(PID.TID 0000.0001) %MON dynstat_salt_max             =   2.8574604004711E+00
(PID.TID 0000.0001) %MON dynstat_salt_min             =  -1.7349579484611E-03
(PID.TID 0000.0001) %MON dynstat_salt_mean            =   3.4489957523935E-02
(PID.TID 0000.0001) %MON dynstat_salt_sd              =   1.4656954996908E-01
(PID.TID 0000.0001) %MON dynstat_salt_del2            =   6.0386702152724E-04
(PID.TID 0000.0001) %MON trAdv_CFL_u_max              =   1.1435907201607E-02
(PID.TID 0000.0001) %MON trAdv_CFL_v_max              =   1.2397766115019E-02
(PID.TID 0000.0001) %MON trAdv_CFL_w_max              =   1.5032393027552E-02
(PID.TID 0000.0001) %MON advcfl_uvel_max              =   1.1978420067004E-02
(PID.TID 0000.0001) %MON advcfl_vvel_max              =   1.3506127294878E-02
(PID.TID 0000.0001) %MON advcfl_wvel_max              =   7.6651461020549E-03
(PID.TID 0000.0001) %MON advcfl_W_hf_max              =   1.5032393027552E-02
(PID.TID 0000.0001) %MON am_eta_mean                  =  -1.6361815531787E+09
(PID.TID 0000.0001) %MON am_uZo_mean                  =   1.6170590731493E+09
(PID.TID 0000.0001) %MON am_tot_mean                  =  -1.9122480029451E+07
(PID.TID 0000.0001) %MON pe_b_mean                    =  -7.6808923625632E-01
(PID.TID 0000.0001) %MON ke_max                       =   3.6406576385004E+01
(PID.TID 0000.0001) %MON ke_mean                      =   6.2356703083998E-01
(PID.TID 0000.0001) %MON ke_vol                       =   4.9523908919847E+19
(PID.TID 0000.0001) %MON vort_r_min                   =  -3.2019267500064E-05
(PID.TID 0000.0001) %MON vort_r_max                   =   1.5893320730436E-05
(PID.TID 0000.0001) %MON vort_a_mean                  =   6.7242814765291E-08
(PID.TID 0000.0001) %MON vort_a_sd                    =   8.3949814178333E-05
(PID.TID 0000.0001) %MON vort_p_mean                  =   6.8939449675941E-08
(PID.TID 0000.0001) %MON vort_p_sd                    =   9.1845694822661E-05
(PID.TID 0000.0001) %MON surfExpan_theta_mean         =   1.6777138941957E-01
(PID.TID 0000.0001) %MON surfExpan_salt_mean          =  -8.0754646784222E-05
(PID.TID 0000.0001) %MON surfExpan_Heat_mean          =  -1.3752196231167E+01
(PID.TID 0000.0001) %MON En_Budget_T2PE_mean          =   2.5956165503068E+01
(PID.TID 0000.0001) // =======================================================
(PID.TID 0000.0001) // End MONITOR dynamic field statistics
(PID.TID 0000.0001) // =======================================================
(PID.TID 0000.0001) // =======================================================
(PID.TID 0000.0001) // Begin MONITOR Land statistics
(PID.TID 0000.0001) // =======================================================
(PID.TID 0000.0001) %MON land_time_sec                =   4.0500000000000E+03
(PID.TID 0000.0001) %MON land_SnwH_ave_G              =   1.5323936487603E-01
(PID.TID 0000.0001) %MON land_SnwH_ave_S              =   5.5905535933968E-01
(PID.TID 0000.0001) %MON land_SnwH_ave_T              =   0.0000000000000E+00
(PID.TID 0000.0001) %MON land_SnwH_ave_N              =   1.2392387011943E-01
(PID.TID 0000.0001) %MON land_SnwH_max_S              =   9.9999514665664E-01
(PID.TID 0000.0001) %MON land_SnwH_max_T              =   0.0000000000000E+00
(PID.TID 0000.0001) %MON land_SnwH_max_N              =   9.9999924589959E-01
(PID.TID 0000.0001) %MON land_Tsrf_ave_G              =  -6.8213990786837E+00
(PID.TID 0000.0001) %MON land_Tsrf_ave_S              =  -6.0068830858667E+00
(PID.TID 0000.0001) %MON land_Tsrf_ave_T              =   1.3506372003880E+01
(PID.TID 0000.0001) %MON land_Tsrf_ave_N              =  -2.0659910803246E+01
(PID.TID 0000.0001) %MON land_Tsrf_min_S              =  -3.2985003898077E+01
(PID.TID 0000.0001) %MON land_Tsrf_min_T              =  -5.9998229726543E+00
(PID.TID 0000.0001) %MON land_Tsrf_min_N              =  -4.9592582825602E+01
(PID.TID 0000.0001) %MON land_Tsrf_max_S              =   2.4530279683918E+01
(PID.TID 0000.0001) %MON land_Tsrf_max_T              =   2.6496445314591E+01
(PID.TID 0000.0001) %MON land_Tsrf_max_N              =   1.1592456892005E+01
(PID.TID 0000.0001) %MON land_Tgr1_ave_G              =  -5.5904169183863E+00
(PID.TID 0000.0001) %MON land_Tgr1_ave_S              =  -5.9585694664481E+00
(PID.TID 0000.0001) %MON land_Tgr1_ave_T              =   1.3506372003880E+01
(PID.TID 0000.0001) %MON land_Tgr1_ave_N              =  -1.8223264490320E+01
(PID.TID 0000.0001) %MON land_Tgr1_min_S              =  -3.9091799637381E+01
(PID.TID 0000.0001) %MON land_Tgr1_min_T              =  -5.9998229726543E+00
(PID.TID 0000.0001) %MON land_Tgr1_min_N              =  -5.4885862255064E+01
(PID.TID 0000.0001) %MON land_Tgr1_max_S              =   2.4530279683918E+01
(PID.TID 0000.0001) %MON land_Tgr1_max_T              =   2.6496445314591E+01
(PID.TID 0000.0001) %MON land_Tgr1_max_N              =   1.1592456892005E+01
(PID.TID 0000.0001) %MON land_Tgr2_ave_G              =   4.2063939084209E+00
(PID.TID 0000.0001) %MON land_Tgr2_ave_S              =  -1.8729849902975E+01
(PID.TID 0000.0001) %MON land_Tgr2_ave_T              =   2.2012195657763E+01
(PID.TID 0000.0001) %MON land_Tgr2_ave_N              =  -2.4341910043895E-01
(PID.TID 0000.0001) %MON land_Tgr2_min_S              =  -6.4758392434899E+01
(PID.TID 0000.0001) %MON land_Tgr2_min_T              =  -9.7047823772793E+00
(PID.TID 0000.0001) %MON land_Tgr2_min_N              =  -4.0195782925519E+01
(PID.TID 0000.0001) %MON land_Tgr2_max_S              =   2.3360639405615E+01
(PID.TID 0000.0001) %MON land_Tgr2_max_T              =   3.1358191774459E+01
(PID.TID 0000.0001) %MON land_Tgr2_max_N              =   2.9829345102630E+01
(PID.TID 0000.0001) %MON land_TotEnerg_G              =  -6.3081714568667E+21
(PID.TID 0000.0001) %MON land_TotEnerg_S              =  -4.9984136634832E+21
(PID.TID 0000.0001) %MON land_TotEnerg_T              =   7.3057165793050E+21
(PID.TID 0000.0001) %MON land_TotEnerg_N              =  -8.6154743726885E+21
(PID.TID 0000.0001) %MON land_grdW_ave_G              =   4.8691008588110E-01
(PID.TID 0000.0001) %MON land_grdW_ave_S              =   3.0866429703511E-01
(PID.TID 0000.0001) %MON land_grdW_ave_T              =   5.6456046890390E-01
(PID.TID 0000.0001) %MON land_grdW_ave_N              =   4.9287929159009E-01
(PID.TID 0000.0001) %MON land_grdW_min_S              =   2.6225856291946E-02
(PID.TID 0000.0001) %MON land_grdW_min_T              =   0.0000000000000E+00
(PID.TID 0000.0001) %MON land_grdW_min_N              =   0.0000000000000E+00
(PID.TID 0000.0001) // =======================================================
(PID.TID 0000.0001) // End MONITOR Land statistics
(PID.TID 0000.0001) // =======================================================
(PID.TID 0000.0001) // =======================================================
(PID.TID 0000.0001) // Begin MONITOR Therm.SeaIce statistics
(PID.TID 0000.0001) // =======================================================
(PID.TID 0000.0001) %MON thSI_time_sec                =   4.0500000000000E+03
(PID.TID 0000.0001) %MON thSI_Ice_Area_G              =   1.2339317630130E+11
(PID.TID 0000.0001) %MON thSI_Ice_Area_S              =   0.0000000000000E+00
(PID.TID 0000.0001) %MON thSI_Ice_Area_N              =   1.2339317630130E+11
(PID.TID 0000.0001) %MON thSI_IceH_ave_G              =   1.0650785611219E-01
(PID.TID 0000.0001) %MON thSI_IceH_ave_S              =   0.0000000000000E+00
(PID.TID 0000.0001) %MON thSI_IceH_ave_N              =   1.0650785611219E-01
(PID.TID 0000.0001) %MON thSI_IceH_max_S              =   0.0000000000000E+00
(PID.TID 0000.0001) %MON thSI_IceH_max_N              =   1.2357429423367E-01
(PID.TID 0000.0001) %MON thSI_SnwH_ave_G              =   0.0000000000000E+00
(PID.TID 0000.0001) %MON thSI_SnwH_ave_S              =   0.0000000000000E+00
(PID.TID 0000.0001) %MON thSI_SnwH_ave_N              =   0.0000000000000E+00
(PID.TID 0000.0001) %MON thSI_SnwH_max_S              =   0.0000000000000E+00
(PID.TID 0000.0001) %MON thSI_SnwH_max_N              =   0.0000000000000E+00
(PID.TID 0000.0001) %MON thSI_Tsrf_ave_G              =  -6.1660854184557E+00
(PID.TID 0000.0001) %MON thSI_Tsrf_ave_S              =   0.0000000000000E+00
(PID.TID 0000.0001) %MON thSI_Tsrf_ave_N              =  -6.1660854184557E+00
(PID.TID 0000.0001) %MON thSI_Tsrf_min_S              =   0.0000000000000E+00
(PID.TID 0000.0001) %MON thSI_Tsrf_min_N              =  -6.5743447629279E+00
(PID.TID 0000.0001) %MON thSI_Tsrf_max_S              =   0.0000000000000E+00
(PID.TID 0000.0001) %MON thSI_Tsrf_max_N              =  -3.4091937052710E+00
(PID.TID 0000.0001) %MON thSI_Tic1_ave_G              =  -4.0377075721045E+00
(PID.TID 0000.0001) %MON thSI_Tic1_ave_S              =   0.0000000000000E+00
(PID.TID 0000.0001) %MON thSI_Tic1_ave_N              =  -4.0377075721045E+00
(PID.TID 0000.0001) %MON thSI_Tic1_min_S              =   0.0000000000000E+00
(PID.TID 0000.0001) %MON thSI_Tic1_min_N              =  -4.1222094804257E+00
(PID.TID 0000.0001) %MON thSI_Tic1_max_S              =   0.0000000000000E+00
(PID.TID 0000.0001) %MON thSI_Tic1_max_N              =  -2.9779554973286E+00
(PID.TID 0000.0001) %MON thSI_Tic2_ave_G              =  -2.2260620651867E+00
(PID.TID 0000.0001) %MON thSI_Tic2_ave_S              =   0.0000000000000E+00
(PID.TID 0000.0001) %MON thSI_Tic2_ave_N              =  -2.2260620651867E+00
(PID.TID 0000.0001) %MON thSI_Tic2_min_S              =   0.0000000000000E+00
(PID.TID 0000.0001) %MON thSI_Tic2_min_N              =  -2.4372730207457E+00
(PID.TID 0000.0001) %MON thSI_Tic2_max_S              =   0.0000000000000E+00
(PID.TID 0000.0001) %MON thSI_Tic2_max_N              =  -2.1147513723863E+00
(PID.TID 0000.0001) %MON thSI_TotEnerg_G              =  -4.0025470037684E+18
(PID.TID 0000.0001) // =======================================================
(PID.TID 0000.0001) // End MONITOR Therm.SeaIce statistics
(PID.TID 0000.0001) // =======================================================
 cg2d: Sum(rhs),rhsMax =   1.47338141687214E-10  1.98708989752043E+04
(PID.TID 0000.0001)      cg2d_init_res =   1.76967516445760E+04
(PID.TID 0000.0001)      cg2d_iters(min,last) =      -1      16
(PID.TID 0000.0001)      cg2d_last_res =   8.43501220157524E-11
(PID.TID 0000.0001) // =======================================================
(PID.TID 0000.0001) // Begin MONITOR dynamic field statistics
(PID.TID 0000.0001) // =======================================================
(PID.TID 0000.0001) %MON time_tsnumber                =                    10
(PID.TID 0000.0001) %MON time_secondsf                =   4.5000000000000E+03
(PID.TID 0000.0001) %MON dynstat_eta_max              =   3.6848594339754E+03
(PID.TID 0000.0001) %MON dynstat_eta_min              =  -1.9231047665460E+03
(PID.TID 0000.0001) %MON dynstat_eta_mean             =  -1.1195824953645E-14
(PID.TID 0000.0001) %MON dynstat_eta_sd               =   4.3637707649726E+02
(PID.TID 0000.0001) %MON dynstat_eta_del2             =   4.5157981134286E+00
(PID.TID 0000.0001) %MON dynstat_uvel_max             =   7.0237984666072E+00
(PID.TID 0000.0001) %MON dynstat_uvel_min             =  -8.1874262104186E+00
(PID.TID 0000.0001) %MON dynstat_uvel_mean            =  -7.2972887015627E-03
(PID.TID 0000.0001) %MON dynstat_uvel_sd              =   7.7791212313002E-01
(PID.TID 0000.0001) %MON dynstat_uvel_del2            =   1.5973053251378E-03
(PID.TID 0000.0001) %MON dynstat_vvel_max             =   8.8875269228630E+00
(PID.TID 0000.0001) %MON dynstat_vvel_min             =  -9.7487501894867E+00
(PID.TID 0000.0001) %MON dynstat_vvel_mean            =   1.3705151675357E-02
(PID.TID 0000.0001) %MON dynstat_vvel_sd              =   8.2687345304413E-01
(PID.TID 0000.0001) %MON dynstat_vvel_del2            =   1.7793275759530E-03
(PID.TID 0000.0001) %MON dynstat_wvel_max             =   2.5346153336711E-01
(PID.TID 0000.0001) %MON dynstat_wvel_min             =  -3.6309781511183E-01
(PID.TID 0000.0001) %MON dynstat_wvel_mean            =  -1.5560693315140E-03
(PID.TID 0000.0001) %MON dynstat_wvel_sd              =   2.0677284247857E-02
(PID.TID 0000.0001) %MON dynstat_wvel_del2            =   1.9364693755726E-04
(PID.TID 0000.0001) %MON dynstat_theta_max            =   4.3955294245131E+02
(PID.TID 0000.0001) %MON dynstat_theta_min            =   2.8712563700337E+02
(PID.TID 0000.0001) %MON dynstat_theta_mean           =   3.3171125879846E+02
(PID.TID 0000.0001) %MON dynstat_theta_sd             =   4.7424651696036E+01
(PID.TID 0000.0001) %MON dynstat_theta_del2           =   2.0921768156521E-03
(PID.TID 0000.0001) %MON dynstat_salt_max             =   3.0382131770658E+00
(PID.TID 0000.0001) %MON dynstat_salt_min             =  -1.8664287609868E-03
(PID.TID 0000.0001) %MON dynstat_salt_mean            =   3.8141309092248E-02
(PID.TID 0000.0001) %MON dynstat_salt_sd              =   1.6164570535399E-01
(PID.TID 0000.0001) %MON dynstat_salt_del2            =   6.4412025450326E-04
(PID.TID 0000.0001) %MON trAdv_CFL_u_max              =   1.1090537164410E-02
(PID.TID 0000.0001) %MON trAdv_CFL_v_max              =   1.2689345951364E-02
(PID.TID 0000.0001) %MON trAdv_CFL_w_max              =   1.4578578084725E-02
(PID.TID 0000.0001) %MON advcfl_uvel_max              =   1.1773535530370E-02
(PID.TID 0000.0001) %MON advcfl_vvel_max              =   1.3984611206433E-02
(PID.TID 0000.0001) %MON advcfl_wvel_max              =   8.2777024998140E-03
(PID.TID 0000.0001) %MON advcfl_W_hf_max              =   1.4578578084725E-02
(PID.TID 0000.0001) %MON am_eta_mean                  =  -2.0356693827289E+09
(PID.TID 0000.0001) %MON am_uZo_mean                  =   2.0147590103615E+09
(PID.TID 0000.0001) %MON am_tot_mean                  =  -2.0910372367334E+07
(PID.TID 0000.0001) %MON pe_b_mean                    =  -7.8966185327016E-01
(PID.TID 0000.0001) %MON ke_max                       =   3.6255339805608E+01
(PID.TID 0000.0001) %MON ke_mean                      =   6.4075969011909E-01
(PID.TID 0000.0001) %MON ke_vol                       =   4.9523908919847E+19
(PID.TID 0000.0001) %MON vort_r_min                   =  -3.2496599946376E-05
(PID.TID 0000.0001) %MON vort_r_max                   =   1.5987094371302E-05
(PID.TID 0000.0001) %MON vort_a_mean                  =   6.7242814765338E-08
(PID.TID 0000.0001) %MON vort_a_sd                    =   8.3952272569370E-05
(PID.TID 0000.0001) %MON vort_p_mean                  =   6.8939450438432E-08
(PID.TID 0000.0001) %MON vort_p_sd                    =   9.1873184324773E-05
(PID.TID 0000.0001) %MON surfExpan_theta_mean         =   1.5277400674140E-01
(PID.TID 0000.0001) %MON surfExpan_salt_mean          =  -1.0358914530611E-04
(PID.TID 0000.0001) %MON surfExpan_Heat_mean          =  -1.2564572159782E+01
(PID.TID 0000.0001) %MON En_Budget_T2PE_mean          =   2.3648505566666E+01
(PID.TID 0000.0001) // =======================================================
(PID.TID 0000.0001) // End MONITOR dynamic field statistics
(PID.TID 0000.0001) // =======================================================
(PID.TID 0000.0001) // =======================================================
(PID.TID 0000.0001) // Begin MONITOR Land statistics
(PID.TID 0000.0001) // =======================================================
(PID.TID 0000.0001) %MON land_time_sec                =   4.5000000000000E+03
(PID.TID 0000.0001) %MON land_SnwH_ave_G              =   1.5323831178541E-01
(PID.TID 0000.0001) %MON land_SnwH_ave_S              =   5.5905436472939E-01
(PID.TID 0000.0001) %MON land_SnwH_ave_T              =   0.0000000000000E+00
(PID.TID 0000.0001) %MON land_SnwH_ave_N              =   1.2392209483520E-01
(PID.TID 0000.0001) %MON land_SnwH_max_S              =   9.9999450443194E-01
(PID.TID 0000.0001) %MON land_SnwH_max_T              =   0.0000000000000E+00
(PID.TID 0000.0001) %MON land_SnwH_max_N              =   9.9999916156579E-01
(PID.TID 0000.0001) %MON land_Tsrf_ave_G              =  -6.9901856532037E+00
(PID.TID 0000.0001) %MON land_Tsrf_ave_S              =  -6.0760703206948E+00
(PID.TID 0000.0001) %MON land_Tsrf_ave_T              =   1.3112845558504E+01
(PID.TID 0000.0001) %MON land_Tsrf_ave_N              =  -2.0710932120423E+01
(PID.TID 0000.0001) %MON land_Tsrf_min_S              =  -3.2642370033689E+01
(PID.TID 0000.0001) %MON land_Tsrf_min_T              =  -5.8127222957821E+00
(PID.TID 0000.0001) %MON land_Tsrf_min_N              =  -4.9714039739071E+01
(PID.TID 0000.0001) %MON land_Tsrf_max_S              =   2.3998632937964E+01
(PID.TID 0000.0001) %MON land_Tsrf_max_T              =   2.5786883776321E+01
(PID.TID 0000.0001) %MON land_Tsrf_max_N              =   1.1321309255468E+01
(PID.TID 0000.0001) %MON land_Tgr1_ave_G              =  -5.7756356344017E+00
(PID.TID 0000.0001) %MON land_Tgr1_ave_S              =  -6.1129687381266E+00
(PID.TID 0000.0001) %MON land_Tgr1_ave_T              =   1.3112845558504E+01
(PID.TID 0000.0001) %MON land_Tgr1_ave_N              =  -1.8279379070851E+01
(PID.TID 0000.0001) %MON land_Tgr1_min_S              =  -3.9101873985861E+01
(PID.TID 0000.0001) %MON land_Tgr1_min_T              =  -5.8127222957821E+00
(PID.TID 0000.0001) %MON land_Tgr1_min_N              =  -5.4870809687272E+01
(PID.TID 0000.0001) %MON land_Tgr1_max_S              =   2.3998632937964E+01
(PID.TID 0000.0001) %MON land_Tgr1_max_T              =   2.5786883776321E+01
(PID.TID 0000.0001) %MON land_Tgr1_max_N              =   1.1321309255468E+01
(PID.TID 0000.0001) %MON land_Tgr2_ave_G              =   4.2062414234986E+00
(PID.TID 0000.0001) %MON land_Tgr2_ave_S              =  -1.8729639401610E+01
(PID.TID 0000.0001) %MON land_Tgr2_ave_T              =   2.2012049283837E+01
(PID.TID 0000.0001) %MON land_Tgr2_ave_N              =  -2.4369341664452E-01
(PID.TID 0000.0001) %MON land_Tgr2_min_S              =  -6.4757959697597E+01
(PID.TID 0000.0001) %MON land_Tgr2_min_T              =  -9.7047331992480E+00
(PID.TID 0000.0001) %MON land_Tgr2_min_N              =  -4.0196021970101E+01
(PID.TID 0000.0001) %MON land_Tgr2_max_S              =   2.3360642468895E+01
(PID.TID 0000.0001) %MON land_Tgr2_max_T              =   3.1357831887332E+01
(PID.TID 0000.0001) %MON land_Tgr2_max_N              =   2.9828917756575E+01
(PID.TID 0000.0001) %MON land_TotEnerg_G              =  -6.3129649235605E+21
(PID.TID 0000.0001) %MON land_TotEnerg_S              =  -4.9989248756725E+21
(PID.TID 0000.0001) %MON land_TotEnerg_T              =   7.3022896870855E+21
(PID.TID 0000.0001) %MON land_TotEnerg_N              =  -8.6163297349736E+21
(PID.TID 0000.0001) %MON land_grdW_ave_G              =   4.8689786198133E-01
(PID.TID 0000.0001) %MON land_grdW_ave_S              =   3.0865414078296E-01
(PID.TID 0000.0001) %MON land_grdW_ave_T              =   5.6452944784939E-01
(PID.TID 0000.0001) %MON land_grdW_ave_N              =   4.9287894914515E-01
(PID.TID 0000.0001) %MON land_grdW_min_S              =   2.6290537828171E-02
(PID.TID 0000.0001) %MON land_grdW_min_T              =   0.0000000000000E+00
(PID.TID 0000.0001) %MON land_grdW_min_N              =   0.0000000000000E+00
(PID.TID 0000.0001) // =======================================================
(PID.TID 0000.0001) // End MONITOR Land statistics
(PID.TID 0000.0001) // =======================================================
(PID.TID 0000.0001) // =======================================================
(PID.TID 0000.0001) // Begin MONITOR Therm.SeaIce statistics
(PID.TID 0000.0001) // =======================================================
(PID.TID 0000.0001) %MON thSI_time_sec                =   4.5000000000000E+03
(PID.TID 0000.0001) %MON thSI_Ice_Area_G              =   1.3448992402281E+11
(PID.TID 0000.0001) %MON thSI_Ice_Area_S              =   0.0000000000000E+00
(PID.TID 0000.0001) %MON thSI_Ice_Area_N              =   1.3448992402281E+11
(PID.TID 0000.0001) %MON thSI_IceH_ave_G              =   1.0852472064304E-01
(PID.TID 0000.0001) %MON thSI_IceH_ave_S              =   0.0000000000000E+00
(PID.TID 0000.0001) %MON thSI_IceH_ave_N              =   1.0852472064304E-01
(PID.TID 0000.0001) %MON thSI_IceH_max_S              =   0.0000000000000E+00
(PID.TID 0000.0001) %MON thSI_IceH_max_N              =   1.2646867799588E-01
(PID.TID 0000.0001) %MON thSI_SnwH_ave_G              =   0.0000000000000E+00
(PID.TID 0000.0001) %MON thSI_SnwH_ave_S              =   0.0000000000000E+00
(PID.TID 0000.0001) %MON thSI_SnwH_ave_N              =   0.0000000000000E+00
(PID.TID 0000.0001) %MON thSI_SnwH_max_S              =   0.0000000000000E+00
(PID.TID 0000.0001) %MON thSI_SnwH_max_N              =   0.0000000000000E+00
(PID.TID 0000.0001) %MON thSI_Tsrf_ave_G              =  -6.4039675972499E+00
(PID.TID 0000.0001) %MON thSI_Tsrf_ave_S              =   0.0000000000000E+00
(PID.TID 0000.0001) %MON thSI_Tsrf_ave_N              =  -6.4039675972499E+00
(PID.TID 0000.0001) %MON thSI_Tsrf_min_S              =   0.0000000000000E+00
(PID.TID 0000.0001) %MON thSI_Tsrf_min_N              =  -6.8455927749235E+00
(PID.TID 0000.0001) %MON thSI_Tsrf_max_S              =   0.0000000000000E+00
(PID.TID 0000.0001) %MON thSI_Tsrf_max_N              =  -3.4370264079436E+00
(PID.TID 0000.0001) %MON thSI_Tic1_ave_G              =  -4.2949552237133E+00
(PID.TID 0000.0001) %MON thSI_Tic1_ave_S              =   0.0000000000000E+00
(PID.TID 0000.0001) %MON thSI_Tic1_ave_N              =  -4.2949552237133E+00
(PID.TID 0000.0001) %MON thSI_Tic1_min_S              =   0.0000000000000E+00
(PID.TID 0000.0001) %MON thSI_Tic1_min_N              =  -4.3921019778837E+00
(PID.TID 0000.0001) %MON thSI_Tic1_max_S              =   0.0000000000000E+00
(PID.TID 0000.0001) %MON thSI_Tic1_max_N              =  -2.9988225092932E+00
(PID.TID 0000.0001) %MON thSI_Tic2_ave_G              =  -2.3032389671193E+00
(PID.TID 0000.0001) %MON thSI_Tic2_ave_S              =   0.0000000000000E+00
(PID.TID 0000.0001) %MON thSI_Tic2_ave_N              =  -2.3032389671193E+00
(PID.TID 0000.0001) %MON thSI_Tic2_min_S              =   0.0000000000000E+00
(PID.TID 0000.0001) %MON thSI_Tic2_min_N              =  -2.4500471762423E+00
(PID.TID 0000.0001) %MON thSI_Tic2_max_S              =   0.0000000000000E+00
(PID.TID 0000.0001) %MON thSI_Tic2_max_N              =  -2.1216721483888E+00
(PID.TID 0000.0001) %MON thSI_TotEnerg_G              =  -4.4513593551592E+18
(PID.TID 0000.0001) // =======================================================
(PID.TID 0000.0001) // End MONITOR Therm.SeaIce statistics
(PID.TID 0000.0001) // =======================================================
 cg2d: Sum(rhs),rhsMax =   3.89263732358813E-10  1.99159181317044E+04
(PID.TID 0000.0001)      cg2d_init_res =   1.66949420261315E+04
(PID.TID 0000.0001)      cg2d_iters(min,last) =      -1      16
(PID.TID 0000.0001)      cg2d_last_res =   8.78752418350466E-11
(PID.TID 0000.0001) // =======================================================
(PID.TID 0000.0001) // Begin MONITOR dynamic field statistics
(PID.TID 0000.0001) // =======================================================
(PID.TID 0000.0001) %MON time_tsnumber                =                    11
(PID.TID 0000.0001) %MON time_secondsf                =   4.9500000000000E+03
(PID.TID 0000.0001) %MON dynstat_eta_max              =   3.8027229874363E+03
(PID.TID 0000.0001) %MON dynstat_eta_min              =  -1.7266542009579E+03
(PID.TID 0000.0001) %MON dynstat_eta_mean             =  -1.2049318335762E-15
(PID.TID 0000.0001) %MON dynstat_eta_sd               =   4.5791833863068E+02
(PID.TID 0000.0001) %MON dynstat_eta_del2             =   4.5453541631287E+00
(PID.TID 0000.0001) %MON dynstat_uvel_max             =   6.9575760163837E+00
(PID.TID 0000.0001) %MON dynstat_uvel_min             =  -7.9580835650144E+00
(PID.TID 0000.0001) %MON dynstat_uvel_mean            =  -7.8377565810626E-03
(PID.TID 0000.0001) %MON dynstat_uvel_sd              =   7.7810442657893E-01
(PID.TID 0000.0001) %MON dynstat_uvel_del2            =   1.5128470764176E-03
(PID.TID 0000.0001) %MON dynstat_vvel_max             =   8.8763496640647E+00
(PID.TID 0000.0001) %MON dynstat_vvel_min             =  -9.9288036608190E+00
(PID.TID 0000.0001) %MON dynstat_vvel_mean            =   1.5331364948759E-02
(PID.TID 0000.0001) %MON dynstat_vvel_sd              =   8.3476533231454E-01
(PID.TID 0000.0001) %MON dynstat_vvel_del2            =   1.6672386049906E-03
(PID.TID 0000.0001) %MON dynstat_wvel_max             =   2.5107966295177E-01
(PID.TID 0000.0001) %MON dynstat_wvel_min             =  -3.5458161791802E-01
(PID.TID 0000.0001) %MON dynstat_wvel_mean            =  -1.4068052474653E-03
(PID.TID 0000.0001) %MON dynstat_wvel_sd              =   1.9761994506610E-02
(PID.TID 0000.0001) %MON dynstat_wvel_del2            =   1.7235164241495E-04
(PID.TID 0000.0001) %MON dynstat_theta_max            =   4.3972964299131E+02
(PID.TID 0000.0001) %MON dynstat_theta_min            =   2.8688103558451E+02
(PID.TID 0000.0001) %MON dynstat_theta_mean           =   3.3170991100410E+02
(PID.TID 0000.0001) %MON dynstat_theta_sd             =   4.7426283069054E+01
(PID.TID 0000.0001) %MON dynstat_theta_del2           =   2.2078879451612E-03
(PID.TID 0000.0001) %MON dynstat_salt_max             =   3.2027968730018E+00
(PID.TID 0000.0001) %MON dynstat_salt_min             =  -2.2129301535528E-03
(PID.TID 0000.0001) %MON dynstat_salt_mean            =   4.1765795779765E-02
(PID.TID 0000.0001) %MON dynstat_salt_sd              =   1.7636362424762E-01
(PID.TID 0000.0001) %MON dynstat_salt_del2            =   6.8206792678681E-04
(PID.TID 0000.0001) %MON trAdv_CFL_u_max              =   1.0618807417884E-02
(PID.TID 0000.0001) %MON trAdv_CFL_v_max              =   1.2761727597328E-02
(PID.TID 0000.0001) %MON trAdv_CFL_w_max              =   1.3924062658958E-02
(PID.TID 0000.0001) %MON advcfl_uvel_max              =   1.1443740340172E-02
(PID.TID 0000.0001) %MON advcfl_vvel_max              =   1.4242898447772E-02
(PID.TID 0000.0001) %MON advcfl_wvel_max              =   8.5150262656915E-03
(PID.TID 0000.0001) %MON advcfl_W_hf_max              =   1.3924062658958E-02
(PID.TID 0000.0001) %MON am_eta_mean                  =  -2.4729846629501E+09
(PID.TID 0000.0001) %MON am_uZo_mean                  =   2.4490760691150E+09
(PID.TID 0000.0001) %MON am_tot_mean                  =  -2.3908593835076E+07
(PID.TID 0000.0001) %MON pe_b_mean                    =  -8.0153347962393E-01
(PID.TID 0000.0001) %MON ke_max                       =   3.7520435847328E+01
(PID.TID 0000.0001) %MON ke_mean                      =   6.4745321385379E-01
(PID.TID 0000.0001) %MON ke_vol                       =   4.9523908919847E+19
(PID.TID 0000.0001) %MON vort_r_min                   =  -3.2456510442683E-05
(PID.TID 0000.0001) %MON vort_r_max                   =   1.5679010322442E-05
(PID.TID 0000.0001) %MON vort_a_mean                  =   6.7242814765222E-08
(PID.TID 0000.0001) %MON vort_a_sd                    =   8.3954826236878E-05
(PID.TID 0000.0001) %MON vort_p_mean                  =   6.8939451466492E-08
(PID.TID 0000.0001) %MON vort_p_sd                    =   9.1899198424982E-05
(PID.TID 0000.0001) %MON surfExpan_theta_mean         =   1.3767848876697E-01
(PID.TID 0000.0001) %MON surfExpan_salt_mean          =  -1.2923516426385E-04
(PID.TID 0000.0001) %MON surfExpan_Heat_mean          =  -1.1389346390367E+01
(PID.TID 0000.0001) %MON En_Budget_T2PE_mean          =   2.1358582781802E+01
(PID.TID 0000.0001) // =======================================================
(PID.TID 0000.0001) // End MONITOR dynamic field statistics
(PID.TID 0000.0001) // =======================================================
(PID.TID 0000.0001) // =======================================================
(PID.TID 0000.0001) // Begin MONITOR Land statistics
(PID.TID 0000.0001) // =======================================================
(PID.TID 0000.0001) %MON land_time_sec                =   4.9500000000000E+03
(PID.TID 0000.0001) %MON land_SnwH_ave_G              =   1.5323727522648E-01
(PID.TID 0000.0001) %MON land_SnwH_ave_S              =   5.5905336346372E-01
(PID.TID 0000.0001) %MON land_SnwH_ave_T              =   0.0000000000000E+00
(PID.TID 0000.0001) %MON land_SnwH_ave_N              =   1.2392035464380E-01
(PID.TID 0000.0001) %MON land_SnwH_max_S              =   9.9999384497372E-01
(PID.TID 0000.0001) %MON land_SnwH_max_T              =   0.0000000000000E+00
(PID.TID 0000.0001) %MON land_SnwH_max_N              =   9.9999907844745E-01
(PID.TID 0000.0001) %MON land_Tsrf_ave_G              =  -7.1453757715860E+00
(PID.TID 0000.0001) %MON land_Tsrf_ave_S              =  -6.1548679527471E+00
(PID.TID 0000.0001) %MON land_Tsrf_ave_T              =   1.2759430024802E+01
(PID.TID 0000.0001) %MON land_Tsrf_ave_N              =  -2.0758534393263E+01
(PID.TID 0000.0001) %MON land_Tsrf_min_S              =  -3.2345434838562E+01
(PID.TID 0000.0001) %MON land_Tsrf_min_T              =  -5.6321024941649E+00
(PID.TID 0000.0001) %MON land_Tsrf_min_N              =  -4.9816007850624E+01
(PID.TID 0000.0001) %MON land_Tsrf_max_S              =   2.3522871853873E+01
(PID.TID 0000.0001) %MON land_Tsrf_max_T              =   2.5144496739183E+01
(PID.TID 0000.0001) %MON land_Tsrf_max_N              =   1.1060843741834E+01
(PID.TID 0000.0001) %MON land_Tgr1_ave_G              =  -5.9433690698110E+00
(PID.TID 0000.0001) %MON land_Tgr1_ave_S              =  -6.2509129703130E+00
(PID.TID 0000.0001) %MON land_Tgr1_ave_T              =   1.2759430024802E+01
(PID.TID 0000.0001) %MON land_Tgr1_ave_N              =  -1.8332782897854E+01
(PID.TID 0000.0001) %MON land_Tgr1_min_S              =  -3.9111522833814E+01
(PID.TID 0000.0001) %MON land_Tgr1_min_T              =  -5.6321024941649E+00
(PID.TID 0000.0001) %MON land_Tgr1_min_N              =  -5.4855881237220E+01
(PID.TID 0000.0001) %MON land_Tgr1_max_S              =   2.3522871853873E+01
(PID.TID 0000.0001) %MON land_Tgr1_max_T              =   2.5144496739183E+01
(PID.TID 0000.0001) %MON land_Tgr1_max_N              =   1.1060843741834E+01
(PID.TID 0000.0001) %MON land_Tgr2_ave_G              =   4.2060862454163E+00
(PID.TID 0000.0001) %MON land_Tgr2_ave_S              =  -1.8729431092626E+01
(PID.TID 0000.0001) %MON land_Tgr2_ave_T              =   2.2011897382277E+01
(PID.TID 0000.0001) %MON land_Tgr2_ave_N              =  -2.4396869568134E-01
(PID.TID 0000.0001) %MON land_Tgr2_min_S              =  -6.4757527151021E+01
(PID.TID 0000.0001) %MON land_Tgr2_min_T              =  -9.7046817396889E+00
(PID.TID 0000.0001) %MON land_Tgr2_min_N              =  -4.0196260755823E+01
(PID.TID 0000.0001) %MON land_Tgr2_max_S              =   2.3360636995450E+01
(PID.TID 0000.0001) %MON land_Tgr2_max_T              =   3.1357464435977E+01
(PID.TID 0000.0001) %MON land_Tgr2_max_N              =   2.9828481968164E+01
(PID.TID 0000.0001) %MON land_TotEnerg_G              =  -6.3173254175416E+21
(PID.TID 0000.0001) %MON land_TotEnerg_S              =  -4.9993791043167E+21
(PID.TID 0000.0001) %MON land_TotEnerg_T              =   7.2992155177732E+21
(PID.TID 0000.0001) %MON land_TotEnerg_N              =  -8.6171618309980E+21
(PID.TID 0000.0001) %MON land_grdW_ave_G              =   4.8688619821552E-01
(PID.TID 0000.0001) %MON land_grdW_ave_S              =   3.0864426631085E-01
(PID.TID 0000.0001) %MON land_grdW_ave_T              =   5.6449995837103E-01
(PID.TID 0000.0001) %MON land_grdW_ave_N              =   4.9287860842997E-01
(PID.TID 0000.0001) %MON land_grdW_min_S              =   2.6358965497665E-02
(PID.TID 0000.0001) %MON land_grdW_min_T              =   0.0000000000000E+00
(PID.TID 0000.0001) %MON land_grdW_min_N              =   0.0000000000000E+00
(PID.TID 0000.0001) // =======================================================
(PID.TID 0000.0001) // End MONITOR Land statistics
(PID.TID 0000.0001) // =======================================================
(PID.TID 0000.0001) // =======================================================
(PID.TID 0000.0001) // Begin MONITOR Therm.SeaIce statistics
(PID.TID 0000.0001) // =======================================================
(PID.TID 0000.0001) %MON thSI_time_sec                =   4.9500000000000E+03
(PID.TID 0000.0001) %MON thSI_Ice_Area_G              =   1.4519529844059E+11
(PID.TID 0000.0001) %MON thSI_Ice_Area_S              =   0.0000000000000E+00
(PID.TID 0000.0001) %MON thSI_Ice_Area_N              =   1.4519529844059E+11
(PID.TID 0000.0001) %MON thSI_IceH_ave_G              =   1.1053354675308E-01
(PID.TID 0000.0001) %MON thSI_IceH_ave_S              =   0.0000000000000E+00
(PID.TID 0000.0001) %MON thSI_IceH_ave_N              =   1.1053354675308E-01
(PID.TID 0000.0001) %MON thSI_IceH_max_S              =   0.0000000000000E+00
(PID.TID 0000.0001) %MON thSI_IceH_max_N              =   1.2935129814969E-01
(PID.TID 0000.0001) %MON thSI_SnwH_ave_G              =   0.0000000000000E+00
(PID.TID 0000.0001) %MON thSI_SnwH_ave_S              =   0.0000000000000E+00
(PID.TID 0000.0001) %MON thSI_SnwH_ave_N              =   0.0000000000000E+00
(PID.TID 0000.0001) %MON thSI_SnwH_max_S              =   0.0000000000000E+00
(PID.TID 0000.0001) %MON thSI_SnwH_max_N              =   0.0000000000000E+00
(PID.TID 0000.0001) %MON thSI_Tsrf_ave_G              =  -6.6249822322420E+00
(PID.TID 0000.0001) %MON thSI_Tsrf_ave_S              =   0.0000000000000E+00
(PID.TID 0000.0001) %MON thSI_Tsrf_ave_N              =  -6.6249822322420E+00
(PID.TID 0000.0001) %MON thSI_Tsrf_min_S              =   0.0000000000000E+00
(PID.TID 0000.0001) %MON thSI_Tsrf_min_N              =  -7.0971908102703E+00
(PID.TID 0000.0001) %MON thSI_Tsrf_max_S              =   0.0000000000000E+00
(PID.TID 0000.0001) %MON thSI_Tsrf_max_N              =  -3.4638745125609E+00
(PID.TID 0000.0001) %MON thSI_Tic1_ave_G              =  -4.5335122315212E+00
(PID.TID 0000.0001) %MON thSI_Tic1_ave_S              =   0.0000000000000E+00
(PID.TID 0000.0001) %MON thSI_Tic1_ave_N              =  -4.5335122315212E+00
(PID.TID 0000.0001) %MON thSI_Tic1_min_S              =   0.0000000000000E+00
(PID.TID 0000.0001) %MON thSI_Tic1_min_N              =  -4.6419261838834E+00
(PID.TID 0000.0001) %MON thSI_Tic1_max_S              =   0.0000000000000E+00
(PID.TID 0000.0001) %MON thSI_Tic1_max_N              =  -3.0189391983980E+00
(PID.TID 0000.0001) %MON thSI_Tic2_ave_G              =  -2.3765791894612E+00
(PID.TID 0000.0001) %MON thSI_Tic2_ave_S              =   0.0000000000000E+00
(PID.TID 0000.0001) %MON thSI_Tic2_ave_N              =  -2.3765791894612E+00
(PID.TID 0000.0001) %MON thSI_Tic2_min_S              =   0.0000000000000E+00
(PID.TID 0000.0001) %MON thSI_Tic2_min_N              =  -2.4602785272211E+00
(PID.TID 0000.0001) %MON thSI_Tic2_max_S              =   0.0000000000000E+00
(PID.TID 0000.0001) %MON thSI_Tic2_max_N              =  -2.1283337480414E+00
(PID.TID 0000.0001) %MON thSI_TotEnerg_G              =  -4.9008555332057E+18
(PID.TID 0000.0001) // =======================================================
(PID.TID 0000.0001) // End MONITOR Therm.SeaIce statistics
(PID.TID 0000.0001) // =======================================================
 cg2d: Sum(rhs),rhsMax =  -7.09405867382884E-11  2.17824879641366E+04
(PID.TID 0000.0001)      cg2d_init_res =   1.55706553086597E+04
(PID.TID 0000.0001)      cg2d_iters(min,last) =      -1      16
(PID.TID 0000.0001)      cg2d_last_res =   9.04891314671307E-11
(PID.TID 0000.0001) // =======================================================
(PID.TID 0000.0001) // Begin MONITOR dynamic field statistics
(PID.TID 0000.0001) // =======================================================
(PID.TID 0000.0001) %MON time_tsnumber                =                    12
(PID.TID 0000.0001) %MON time_secondsf                =   5.4000000000000E+03
(PID.TID 0000.0001) %MON dynstat_eta_max              =   4.1453130192353E+03
(PID.TID 0000.0001) %MON dynstat_eta_min              =  -1.5232966611848E+03
(PID.TID 0000.0001) %MON dynstat_eta_mean             =  -1.0041098613135E-14
(PID.TID 0000.0001) %MON dynstat_eta_sd               =   4.7722034121107E+02
(PID.TID 0000.0001) %MON dynstat_eta_del2             =   4.5764310092289E+00
(PID.TID 0000.0001) %MON dynstat_uvel_max             =   6.7874350399890E+00
(PID.TID 0000.0001) %MON dynstat_uvel_min             =  -7.6644233587533E+00
(PID.TID 0000.0001) %MON dynstat_uvel_mean            =  -8.3250472366777E-03
(PID.TID 0000.0001) %MON dynstat_uvel_sd              =   7.7736313839907E-01
(PID.TID 0000.0001) %MON dynstat_uvel_del2            =   1.4400470273123E-03
(PID.TID 0000.0001) %MON dynstat_vvel_max             =   8.7585504044784E+00
(PID.TID 0000.0001) %MON dynstat_vvel_min             =  -9.9232086998412E+00
(PID.TID 0000.0001) %MON dynstat_vvel_mean            =   1.6946562033724E-02
(PID.TID 0000.0001) %MON dynstat_vvel_sd              =   8.3472959229024E-01
(PID.TID 0000.0001) %MON dynstat_vvel_del2            =   1.5490053613097E-03
(PID.TID 0000.0001) %MON dynstat_wvel_max             =   2.3955683162288E-01
(PID.TID 0000.0001) %MON dynstat_wvel_min             =  -3.3970006368282E-01
(PID.TID 0000.0001) %MON dynstat_wvel_mean            =  -1.2555837326807E-03
(PID.TID 0000.0001) %MON dynstat_wvel_sd              =   1.8739741613635E-02
(PID.TID 0000.0001) %MON dynstat_wvel_del2            =   1.5600911324625E-04
(PID.TID 0000.0001) %MON dynstat_theta_max            =   4.3992661241788E+02
(PID.TID 0000.0001) %MON dynstat_theta_min            =   2.8663785185215E+02
(PID.TID 0000.0001) %MON dynstat_theta_mean           =   3.3170848863218E+02
(PID.TID 0000.0001) %MON dynstat_theta_sd             =   4.7427980512494E+01
(PID.TID 0000.0001) %MON dynstat_theta_del2           =   2.2818367160083E-03
(PID.TID 0000.0001) %MON dynstat_salt_max             =   3.3529997766607E+00
(PID.TID 0000.0001) %MON dynstat_salt_min             =  -2.5765856512029E-03
(PID.TID 0000.0001) %MON dynstat_salt_mean            =   4.5364978399867E-02
(PID.TID 0000.0001) %MON dynstat_salt_sd              =   1.9066092022145E-01
(PID.TID 0000.0001) %MON dynstat_salt_del2            =   7.1779459317151E-04
(PID.TID 0000.0001) %MON trAdv_CFL_u_max              =   1.0027273550227E-02
(PID.TID 0000.0001) %MON trAdv_CFL_v_max              =   1.2562399124741E-02
(PID.TID 0000.0001) %MON trAdv_CFL_w_max              =   1.3117551907220E-02
(PID.TID 0000.0001) %MON advcfl_uvel_max              =   1.1021456366746E-02
(PID.TID 0000.0001) %MON advcfl_vvel_max              =   1.4234872459572E-02
(PID.TID 0000.0001) %MON advcfl_wvel_max              =   8.4208430190388E-03
(PID.TID 0000.0001) %MON advcfl_W_hf_max              =   1.3117551907220E-02
(PID.TID 0000.0001) %MON am_eta_mean                  =  -2.9457647248163E+09
(PID.TID 0000.0001) %MON am_uZo_mean                  =   2.9175097874894E+09
(PID.TID 0000.0001) %MON am_tot_mean                  =  -2.8254937326934E+07
(PID.TID 0000.0001) %MON pe_b_mean                    =  -8.0671200333020E-01
(PID.TID 0000.0001) %MON ke_max                       =   3.7967400064554E+01
(PID.TID 0000.0001) %MON ke_mean                      =   6.4687869007140E-01
(PID.TID 0000.0001) %MON ke_vol                       =   4.9523908919847E+19
(PID.TID 0000.0001) %MON vort_r_min                   =  -3.1988093402337E-05
(PID.TID 0000.0001) %MON vort_r_max                   =   1.6422300487684E-05
(PID.TID 0000.0001) %MON vort_a_mean                  =   6.7242814765281E-08
(PID.TID 0000.0001) %MON vort_a_sd                    =   8.3957455465117E-05
(PID.TID 0000.0001) %MON vort_p_mean                  =   6.8939452723315E-08
(PID.TID 0000.0001) %MON vort_p_sd                    =   9.1923596120679E-05
(PID.TID 0000.0001) %MON surfExpan_theta_mean         =   1.2222397976727E-01
(PID.TID 0000.0001) %MON surfExpan_salt_mean          =  -1.5771709735156E-04
(PID.TID 0000.0001) %MON surfExpan_Heat_mean          =  -1.0193588220090E+01
(PID.TID 0000.0001) %MON En_Budget_T2PE_mean          =   1.9031403056983E+01
(PID.TID 0000.0001) // =======================================================
(PID.TID 0000.0001) // End MONITOR dynamic field statistics
(PID.TID 0000.0001) // =======================================================
(PID.TID 0000.0001) // =======================================================
(PID.TID 0000.0001) // Begin MONITOR Land statistics
(PID.TID 0000.0001) // =======================================================
(PID.TID 0000.0001) %MON land_time_sec                =   5.4000000000000E+03
(PID.TID 0000.0001) %MON land_SnwH_ave_G              =   1.5323625492662E-01
(PID.TID 0000.0001) %MON land_SnwH_ave_S              =   5.5905236223896E-01
(PID.TID 0000.0001) %MON land_SnwH_ave_T              =   0.0000000000000E+00
(PID.TID 0000.0001) %MON land_SnwH_ave_N              =   1.2391864682985E-01
(PID.TID 0000.0001) %MON land_SnwH_max_S              =   9.9999317315865E-01
(PID.TID 0000.0001) %MON land_SnwH_max_T              =   0.0000000000000E+00
(PID.TID 0000.0001) %MON land_SnwH_max_N              =   9.9999899615141E-01
(PID.TID 0000.0001) %MON land_Tsrf_ave_G              =  -7.2882852872413E+00
(PID.TID 0000.0001) %MON land_Tsrf_ave_S              =  -6.2409275195245E+00
(PID.TID 0000.0001) %MON land_Tsrf_ave_T              =   1.2442091691377E+01
(PID.TID 0000.0001) %MON land_Tsrf_ave_N              =  -2.0803407251299E+01
(PID.TID 0000.0001) %MON land_Tsrf_min_S              =  -3.2098285936359E+01
(PID.TID 0000.0001) %MON land_Tsrf_min_T              =  -5.4576957532673E+00
(PID.TID 0000.0001) %MON land_Tsrf_min_N              =  -4.9892968558318E+01
(PID.TID 0000.0001) %MON land_Tsrf_max_S              =   2.3097178834184E+01
(PID.TID 0000.0001) %MON land_Tsrf_max_T              =   2.4562797083430E+01
(PID.TID 0000.0001) %MON land_Tsrf_max_N              =   1.0811063548719E+01
(PID.TID 0000.0001) %MON land_Tgr1_ave_G              =  -6.0955247628028E+00
(PID.TID 0000.0001) %MON land_Tgr1_ave_S              =  -6.3742223484888E+00
(PID.TID 0000.0001) %MON land_Tgr1_ave_T              =   1.2442091691377E+01
(PID.TID 0000.0001) %MON land_Tgr1_ave_N              =  -1.8383992050267E+01
(PID.TID 0000.0001) %MON land_Tgr1_min_S              =  -3.9120813975726E+01
(PID.TID 0000.0001) %MON land_Tgr1_min_T              =  -5.4576957532673E+00
(PID.TID 0000.0001) %MON land_Tgr1_min_N              =  -5.4841052351796E+01
(PID.TID 0000.0001) %MON land_Tgr1_max_S              =   2.3097178834184E+01
(PID.TID 0000.0001) %MON land_Tgr1_max_T              =   2.4562797083430E+01
(PID.TID 0000.0001) %MON land_Tgr1_max_N              =   1.0811063548719E+01
(PID.TID 0000.0001) %MON land_Tgr2_ave_G              =   4.2059286295097E+00
(PID.TID 0000.0001) %MON land_Tgr2_ave_S              =  -1.8729224742376E+01
(PID.TID 0000.0001) %MON land_Tgr2_ave_T              =   2.2011740535839E+01
(PID.TID 0000.0001) %MON land_Tgr2_ave_N              =  -2.4424489382018E-01
(PID.TID 0000.0001) %MON land_Tgr2_min_S              =  -6.4757094790854E+01
(PID.TID 0000.0001) %MON land_Tgr2_min_T              =  -9.7046280771549E+00
(PID.TID 0000.0001) %MON land_Tgr2_min_N              =  -4.0196499283907E+01
(PID.TID 0000.0001) %MON land_Tgr2_max_S              =   2.3360623871206E+01
(PID.TID 0000.0001) %MON land_Tgr2_max_T              =   3.1357090047388E+01
(PID.TID 0000.0001) %MON land_Tgr2_max_N              =   2.9828038017939E+01
(PID.TID 0000.0001) %MON land_TotEnerg_G              =  -6.3212962202962E+21
(PID.TID 0000.0001) %MON land_TotEnerg_S              =  -4.9997827521155E+21
(PID.TID 0000.0001) %MON land_TotEnerg_T              =   7.2964583253341E+21
(PID.TID 0000.0001) %MON land_TotEnerg_N              =  -8.6179717935148E+21
(PID.TID 0000.0001) %MON land_grdW_ave_G              =   4.8687504929794E-01
(PID.TID 0000.0001) %MON land_grdW_ave_S              =   3.0863464393467E-01
(PID.TID 0000.0001) %MON land_grdW_ave_T              =   5.6447188109930E-01
(PID.TID 0000.0001) %MON land_grdW_ave_N              =   4.9287826856872E-01
(PID.TID 0000.0001) %MON land_grdW_min_S              =   2.6430645939227E-02
(PID.TID 0000.0001) %MON land_grdW_min_T              =   0.0000000000000E+00
(PID.TID 0000.0001) %MON land_grdW_min_N              =   0.0000000000000E+00
(PID.TID 0000.0001) // =======================================================
(PID.TID 0000.0001) // End MONITOR Land statistics
(PID.TID 0000.0001) // =======================================================
(PID.TID 0000.0001) // =======================================================
(PID.TID 0000.0001) // Begin MONITOR Therm.SeaIce statistics
(PID.TID 0000.0001) // =======================================================
(PID.TID 0000.0001) %MON thSI_time_sec                =   5.4000000000000E+03
(PID.TID 0000.0001) %MON thSI_Ice_Area_G              =   1.5553418671903E+11
(PID.TID 0000.0001) %MON thSI_Ice_Area_S              =   0.0000000000000E+00
(PID.TID 0000.0001) %MON thSI_Ice_Area_N              =   1.5553418671903E+11
(PID.TID 0000.0001) %MON thSI_IceH_ave_G              =   1.1253431576756E-01
(PID.TID 0000.0001) %MON thSI_IceH_ave_S              =   0.0000000000000E+00
(PID.TID 0000.0001) %MON thSI_IceH_ave_N              =   1.1253431576756E-01
(PID.TID 0000.0001) %MON thSI_IceH_max_S              =   0.0000000000000E+00
(PID.TID 0000.0001) %MON thSI_IceH_max_N              =   1.3222169158394E-01
(PID.TID 0000.0001) %MON thSI_SnwH_ave_G              =   0.0000000000000E+00
(PID.TID 0000.0001) %MON thSI_SnwH_ave_S              =   0.0000000000000E+00
(PID.TID 0000.0001) %MON thSI_SnwH_ave_N              =   0.0000000000000E+00
(PID.TID 0000.0001) %MON thSI_SnwH_max_S              =   0.0000000000000E+00
(PID.TID 0000.0001) %MON thSI_SnwH_max_N              =   0.0000000000000E+00
(PID.TID 0000.0001) %MON thSI_Tsrf_ave_G              =  -6.8297523809826E+00
(PID.TID 0000.0001) %MON thSI_Tsrf_ave_S              =   0.0000000000000E+00
(PID.TID 0000.0001) %MON thSI_Tsrf_ave_N              =  -6.8297523809826E+00
(PID.TID 0000.0001) %MON thSI_Tsrf_min_S              =   0.0000000000000E+00
(PID.TID 0000.0001) %MON thSI_Tsrf_min_N              =  -7.3303024812710E+00
(PID.TID 0000.0001) %MON thSI_Tsrf_max_S              =   0.0000000000000E+00
(PID.TID 0000.0001) %MON thSI_Tsrf_max_N              =  -3.4898655676568E+00
(PID.TID 0000.0001) %MON thSI_Tic1_ave_G              =  -4.7538383048694E+00
(PID.TID 0000.0001) %MON thSI_Tic1_ave_S              =   0.0000000000000E+00
(PID.TID 0000.0001) %MON thSI_Tic1_ave_N              =  -4.7538383048694E+00
(PID.TID 0000.0001) %MON thSI_Tic1_min_S              =   0.0000000000000E+00
(PID.TID 0000.0001) %MON thSI_Tic1_min_N              =  -4.8720473867450E+00
(PID.TID 0000.0001) %MON thSI_Tic1_max_S              =   0.0000000000000E+00
(PID.TID 0000.0001) %MON thSI_Tic1_max_N              =  -3.0384040426639E+00
(PID.TID 0000.0001) %MON thSI_Tic2_ave_G              =  -2.4456845454444E+00
(PID.TID 0000.0001) %MON thSI_Tic2_ave_S              =   0.0000000000000E+00
(PID.TID 0000.0001) %MON thSI_Tic2_ave_N              =  -2.4456845454444E+00
(PID.TID 0000.0001) %MON thSI_Tic2_min_S              =   0.0000000000000E+00
(PID.TID 0000.0001) %MON thSI_Tic2_min_N              =  -2.5281882068094E+00
(PID.TID 0000.0001) %MON thSI_Tic2_max_S              =   0.0000000000000E+00
(PID.TID 0000.0001) %MON thSI_Tic2_max_N              =  -2.1347770369272E+00
(PID.TID 0000.0001) %MON thSI_TotEnerg_G              =  -5.3509898927566E+18
(PID.TID 0000.0001) // =======================================================
(PID.TID 0000.0001) // End MONITOR Therm.SeaIce statistics
(PID.TID 0000.0001) // =======================================================
 cg2d: Sum(rhs),rhsMax =   1.74622982740402E-10  2.33660192449813E+04
(PID.TID 0000.0001)      cg2d_init_res =   1.44721010541403E+04
(PID.TID 0000.0001)      cg2d_iters(min,last) =      -1      16
(PID.TID 0000.0001)      cg2d_last_res =   9.00911815323811E-11
(PID.TID 0000.0001) // =======================================================
(PID.TID 0000.0001) // Begin MONITOR dynamic field statistics
(PID.TID 0000.0001) // =======================================================
(PID.TID 0000.0001) %MON time_tsnumber                =                    13
(PID.TID 0000.0001) %MON time_secondsf                =   5.8500000000000E+03
(PID.TID 0000.0001) %MON dynstat_eta_max              =   4.4355996401484E+03
(PID.TID 0000.0001) %MON dynstat_eta_min              =  -1.4048134119166E+03
(PID.TID 0000.0001) %MON dynstat_eta_mean             =   2.6508500338676E-14
(PID.TID 0000.0001) %MON dynstat_eta_sd               =   4.9397463915294E+02
(PID.TID 0000.0001) %MON dynstat_eta_del2             =   4.5903584823346E+00
(PID.TID 0000.0001) %MON dynstat_uvel_max             =   6.6865303793389E+00
(PID.TID 0000.0001) %MON dynstat_uvel_min             =  -7.9387052649326E+00
(PID.TID 0000.0001) %MON dynstat_uvel_mean            =  -8.7242175781800E-03
(PID.TID 0000.0001) %MON dynstat_uvel_sd              =   7.7745684487653E-01
(PID.TID 0000.0001) %MON dynstat_uvel_del2            =   1.3896180399917E-03
(PID.TID 0000.0001) %MON dynstat_vvel_max             =   8.5004321374679E+00
(PID.TID 0000.0001) %MON dynstat_vvel_min             =  -9.7277816996941E+00
(PID.TID 0000.0001) %MON dynstat_vvel_mean            =   1.8532468408894E-02
(PID.TID 0000.0001) %MON dynstat_vvel_sd              =   8.2940904866563E-01
(PID.TID 0000.0001) %MON dynstat_vvel_del2            =   1.4470411314652E-03
(PID.TID 0000.0001) %MON dynstat_wvel_max             =   2.2062634042982E-01
(PID.TID 0000.0001) %MON dynstat_wvel_min             =  -3.1825122835996E-01
(PID.TID 0000.0001) %MON dynstat_wvel_mean            =  -1.1005472851760E-03
(PID.TID 0000.0001) %MON dynstat_wvel_sd              =   1.7749957583207E-02
(PID.TID 0000.0001) %MON dynstat_wvel_del2            =   1.4614423467608E-04
(PID.TID 0000.0001) %MON dynstat_theta_max            =   4.4024487314941E+02
(PID.TID 0000.0001) %MON dynstat_theta_min            =   2.8639658531393E+02
(PID.TID 0000.0001) %MON dynstat_theta_mean           =   3.3170700233261E+02
(PID.TID 0000.0001) %MON dynstat_theta_sd             =   4.7429732740406E+01
(PID.TID 0000.0001) %MON dynstat_theta_del2           =   2.3204333850819E-03
(PID.TID 0000.0001) %MON dynstat_salt_max             =   3.4903720522319E+00
(PID.TID 0000.0001) %MON dynstat_salt_min             =  -2.2115181084476E-03
(PID.TID 0000.0001) %MON dynstat_salt_mean            =   4.8940770818727E-02
(PID.TID 0000.0001) %MON dynstat_salt_sd              =   2.0464959566185E-01
(PID.TID 0000.0001) %MON dynstat_salt_del2            =   7.5147984444435E-04
(PID.TID 0000.0001) %MON trAdv_CFL_u_max              =   1.1086346237539E-02
(PID.TID 0000.0001) %MON trAdv_CFL_v_max              =   1.2079886192829E-02
(PID.TID 0000.0001) %MON trAdv_CFL_w_max              =   1.2198976199084E-02
(PID.TID 0000.0001) %MON advcfl_uvel_max              =   1.1150612750434E-02
(PID.TID 0000.0001) %MON advcfl_vvel_max              =   1.3954531845321E-02
(PID.TID 0000.0001) %MON advcfl_wvel_max              =   8.0524805338524E-03
(PID.TID 0000.0001) %MON advcfl_W_hf_max              =   1.2198976199084E-02
(PID.TID 0000.0001) %MON am_eta_mean                  =  -3.4514474403919E+09
(PID.TID 0000.0001) %MON am_uZo_mean                  =   3.4175213657820E+09
(PID.TID 0000.0001) %MON am_tot_mean                  =  -3.3926074609822E+07
(PID.TID 0000.0001) %MON pe_b_mean                    =  -8.0839394853456E-01
(PID.TID 0000.0001) %MON ke_max                       =   3.7389288682396E+01
(PID.TID 0000.0001) %MON ke_mean                      =   6.4257933749797E-01
(PID.TID 0000.0001) %MON ke_vol                       =   4.9523908919847E+19
(PID.TID 0000.0001) %MON vort_r_min                   =  -3.1829511434642E-05
(PID.TID 0000.0001) %MON vort_r_max                   =   1.6602874704232E-05
(PID.TID 0000.0001) %MON vort_a_mean                  =   6.7242814765284E-08
(PID.TID 0000.0001) %MON vort_a_sd                    =   8.3960144484224E-05
(PID.TID 0000.0001) %MON vort_p_mean                  =   6.8939454149954E-08
(PID.TID 0000.0001) %MON vort_p_sd                    =   9.1946051636920E-05
(PID.TID 0000.0001) %MON surfExpan_theta_mean         =   1.0634588376432E-01
(PID.TID 0000.0001) %MON surfExpan_salt_mean          =  -1.8929047955929E-04
(PID.TID 0000.0001) %MON surfExpan_Heat_mean          =  -8.9602072091893E+00
(PID.TID 0000.0001) %MON En_Budget_T2PE_mean          =   1.6641902341936E+01
(PID.TID 0000.0001) // =======================================================
(PID.TID 0000.0001) // End MONITOR dynamic field statistics
(PID.TID 0000.0001) // =======================================================
(PID.TID 0000.0001) // =======================================================
(PID.TID 0000.0001) // Begin MONITOR Land statistics
(PID.TID 0000.0001) // =======================================================
(PID.TID 0000.0001) %MON land_time_sec                =   5.8500000000000E+03
(PID.TID 0000.0001) %MON land_SnwH_ave_G              =   1.5323524545856E-01
(PID.TID 0000.0001) %MON land_SnwH_ave_S              =   5.5905136600286E-01
(PID.TID 0000.0001) %MON land_SnwH_ave_T              =   0.0000000000000E+00
(PID.TID 0000.0001) %MON land_SnwH_ave_N              =   1.2391695897633E-01
(PID.TID 0000.0001) %MON land_SnwH_max_S              =   9.9999249053708E-01
(PID.TID 0000.0001) %MON land_SnwH_max_T              =   0.0000000000000E+00
(PID.TID 0000.0001) %MON land_SnwH_max_N              =   9.9999891445489E-01
(PID.TID 0000.0001) %MON land_Tsrf_ave_G              =  -7.4195807777534E+00
(PID.TID 0000.0001) %MON land_Tsrf_ave_S              =  -6.3301110675456E+00
(PID.TID 0000.0001) %MON land_Tsrf_ave_T              =   1.2156720954493E+01
(PID.TID 0000.0001) %MON land_Tsrf_ave_N              =  -2.0845476681111E+01
(PID.TID 0000.0001) %MON land_Tsrf_min_S              =  -3.1881624836090E+01
(PID.TID 0000.0001) %MON land_Tsrf_min_T              =  -5.2892270341025E+00
(PID.TID 0000.0001) %MON land_Tsrf_min_N              =  -4.9953943036540E+01
(PID.TID 0000.0001) %MON land_Tsrf_max_S              =   2.2716435533907E+01
(PID.TID 0000.0001) %MON land_Tsrf_max_T              =   2.4036059447515E+01
(PID.TID 0000.0001) %MON land_Tsrf_max_N              =   1.0571917551172E+01
(PID.TID 0000.0001) %MON land_Tgr1_ave_G              =  -6.2335536453363E+00
(PID.TID 0000.0001) %MON land_Tgr1_ave_S              =  -6.4845028632872E+00
(PID.TID 0000.0001) %MON land_Tgr1_ave_T              =   1.2156720954493E+01
(PID.TID 0000.0001) %MON land_Tgr1_ave_N              =  -1.8432631777134E+01
(PID.TID 0000.0001) %MON land_Tgr1_min_S              =  -3.9129841377877E+01
(PID.TID 0000.0001) %MON land_Tgr1_min_T              =  -5.2892270341025E+00
(PID.TID 0000.0001) %MON land_Tgr1_min_N              =  -5.4826307301988E+01
(PID.TID 0000.0001) %MON land_Tgr1_max_S              =   2.2716435533907E+01
(PID.TID 0000.0001) %MON land_Tgr1_max_T              =   2.4036059447515E+01
(PID.TID 0000.0001) %MON land_Tgr1_max_N              =   1.0571917551172E+01
(PID.TID 0000.0001) %MON land_Tgr2_ave_G              =   4.2057688089389E+00
(PID.TID 0000.0001) %MON land_Tgr2_ave_S              =  -1.8729020142954E+01
(PID.TID 0000.0001) %MON land_Tgr2_ave_T              =   2.2011579258358E+01
(PID.TID 0000.0001) %MON land_Tgr2_ave_N              =  -2.4452195713397E-01
(PID.TID 0000.0001) %MON land_Tgr2_min_S              =  -6.4756662613281E+01
(PID.TID 0000.0001) %MON land_Tgr2_min_T              =  -9.7045722867217E+00
(PID.TID 0000.0001) %MON land_Tgr2_min_N              =  -4.0196737555372E+01
(PID.TID 0000.0001) %MON land_Tgr2_max_S              =   2.3360603885135E+01
(PID.TID 0000.0001) %MON land_Tgr2_max_T              =   3.1356709268561E+01
(PID.TID 0000.0001) %MON land_Tgr2_max_N              =   2.9827586196769E+01
(PID.TID 0000.0001) %MON land_TotEnerg_G              =  -6.3249212949317E+21
(PID.TID 0000.0001) %MON land_TotEnerg_S              =  -5.0001414430061E+21
(PID.TID 0000.0001) %MON land_TotEnerg_T              =   7.2939808466177E+21
(PID.TID 0000.0001) %MON land_TotEnerg_N              =  -8.6187606985432E+21
(PID.TID 0000.0001) %MON land_grdW_ave_G              =   4.8686436106533E-01
(PID.TID 0000.0001) %MON land_grdW_ave_S              =   3.0862524743211E-01
(PID.TID 0000.0001) %MON land_grdW_ave_T              =   5.6444506285852E-01
(PID.TID 0000.0001) %MON land_grdW_ave_N              =   4.9287793245183E-01
(PID.TID 0000.0001) %MON land_grdW_min_S              =   2.6505144373341E-02
(PID.TID 0000.0001) %MON land_grdW_min_T              =   0.0000000000000E+00
(PID.TID 0000.0001) %MON land_grdW_min_N              =   0.0000000000000E+00
(PID.TID 0000.0001) // =======================================================
(PID.TID 0000.0001) // End MONITOR Land statistics
(PID.TID 0000.0001) // =======================================================
(PID.TID 0000.0001) // =======================================================
(PID.TID 0000.0001) // Begin MONITOR Therm.SeaIce statistics
(PID.TID 0000.0001) // =======================================================
(PID.TID 0000.0001) %MON thSI_time_sec                =   5.8500000000000E+03
(PID.TID 0000.0001) %MON thSI_Ice_Area_G              =   1.6552931357893E+11
(PID.TID 0000.0001) %MON thSI_Ice_Area_S              =   0.0000000000000E+00
(PID.TID 0000.0001) %MON thSI_Ice_Area_N              =   1.6552931357893E+11
(PID.TID 0000.0001) %MON thSI_IceH_ave_G              =   1.1452693227711E-01
(PID.TID 0000.0001) %MON thSI_IceH_ave_S              =   0.0000000000000E+00
(PID.TID 0000.0001) %MON thSI_IceH_ave_N              =   1.1452693227711E-01
(PID.TID 0000.0001) %MON thSI_IceH_max_S              =   0.0000000000000E+00
(PID.TID 0000.0001) %MON thSI_IceH_max_N              =   1.3507942722167E-01
(PID.TID 0000.0001) %MON thSI_SnwH_ave_G              =   0.0000000000000E+00
(PID.TID 0000.0001) %MON thSI_SnwH_ave_S              =   0.0000000000000E+00
(PID.TID 0000.0001) %MON thSI_SnwH_ave_N              =   0.0000000000000E+00
(PID.TID 0000.0001) %MON thSI_SnwH_max_S              =   0.0000000000000E+00
(PID.TID 0000.0001) %MON thSI_SnwH_max_N              =   0.0000000000000E+00
(PID.TID 0000.0001) %MON thSI_Tsrf_ave_G              =  -7.0191600816268E+00
(PID.TID 0000.0001) %MON thSI_Tsrf_ave_S              =   0.0000000000000E+00
(PID.TID 0000.0001) %MON thSI_Tsrf_ave_N              =  -7.0191600816268E+00
(PID.TID 0000.0001) %MON thSI_Tsrf_min_S              =   0.0000000000000E+00
(PID.TID 0000.0001) %MON thSI_Tsrf_min_N              =  -7.5463039233349E+00
(PID.TID 0000.0001) %MON thSI_Tsrf_max_S              =   0.0000000000000E+00
(PID.TID 0000.0001) %MON thSI_Tsrf_max_N              =  -3.5151366698428E+00
(PID.TID 0000.0001) %MON thSI_Tic1_ave_G              =  -4.9568424839169E+00
(PID.TID 0000.0001) %MON thSI_Tic1_ave_S              =   0.0000000000000E+00
(PID.TID 0000.0001) %MON thSI_Tic1_ave_N              =  -4.9568424839169E+00
(PID.TID 0000.0001) %MON thSI_Tic1_min_S              =   0.0000000000000E+00
(PID.TID 0000.0001) %MON thSI_Tic1_min_N              =  -5.0834299848340E+00
(PID.TID 0000.0001) %MON thSI_Tic1_max_S              =   0.0000000000000E+00
(PID.TID 0000.0001) %MON thSI_Tic1_max_N              =  -3.0573182192418E+00
(PID.TID 0000.0001) %MON thSI_Tic2_ave_G              =  -2.5103954834356E+00
(PID.TID 0000.0001) %MON thSI_Tic2_ave_S              =   0.0000000000000E+00
(PID.TID 0000.0001) %MON thSI_Tic2_ave_N              =  -2.5103954834356E+00
(PID.TID 0000.0001) %MON thSI_Tic2_min_S              =   0.0000000000000E+00
(PID.TID 0000.0001) %MON thSI_Tic2_min_N              =  -2.5993381769161E+00
(PID.TID 0000.0001) %MON thSI_Tic2_max_S              =   0.0000000000000E+00
(PID.TID 0000.0001) %MON thSI_Tic2_max_N              =  -2.1410357911230E+00
(PID.TID 0000.0001) %MON thSI_TotEnerg_G              =  -5.8017211108898E+18
(PID.TID 0000.0001) // =======================================================
(PID.TID 0000.0001) // End MONITOR Therm.SeaIce statistics
(PID.TID 0000.0001) // =======================================================
 cg2d: Sum(rhs),rhsMax =  -1.38243194669485E-10  2.41965000666783E+04
(PID.TID 0000.0001)      cg2d_init_res =   1.35336124814387E+04
(PID.TID 0000.0001)      cg2d_iters(min,last) =      -1      16
(PID.TID 0000.0001)      cg2d_last_res =   9.20321052455117E-11
(PID.TID 0000.0001) // =======================================================
(PID.TID 0000.0001) // Begin MONITOR dynamic field statistics
(PID.TID 0000.0001) // =======================================================
(PID.TID 0000.0001) %MON time_tsnumber                =                    14
(PID.TID 0000.0001) %MON time_secondsf                =   6.3000000000000E+03
(PID.TID 0000.0001) %MON dynstat_eta_max              =   4.5953185615604E+03
(PID.TID 0000.0001) %MON dynstat_eta_min              =  -1.2863016189090E+03
(PID.TID 0000.0001) %MON dynstat_eta_mean             =   7.9324679043765E-15
(PID.TID 0000.0001) %MON dynstat_eta_sd               =   5.0792004993445E+02
(PID.TID 0000.0001) %MON dynstat_eta_del2             =   4.5843520351203E+00
(PID.TID 0000.0001) %MON dynstat_uvel_max             =   6.6226565711057E+00
(PID.TID 0000.0001) %MON dynstat_uvel_min             =  -8.4839344617080E+00
(PID.TID 0000.0001) %MON dynstat_uvel_mean            =  -8.9873371950643E-03
(PID.TID 0000.0001) %MON dynstat_uvel_sd              =   7.7947279287439E-01
(PID.TID 0000.0001) %MON dynstat_uvel_del2            =   1.3637333709114E-03
(PID.TID 0000.0001) %MON dynstat_vvel_max             =   8.0980838954168E+00
(PID.TID 0000.0001) %MON dynstat_vvel_min             =  -9.3625583850030E+00
(PID.TID 0000.0001) %MON dynstat_vvel_mean            =   2.0064776039842E-02
(PID.TID 0000.0001) %MON dynstat_vvel_sd              =   8.2142612686055E-01
(PID.TID 0000.0001) %MON dynstat_vvel_del2            =   1.3757350319128E-03
(PID.TID 0000.0001) %MON dynstat_wvel_max             =   2.0215396656192E-01
(PID.TID 0000.0001) %MON dynstat_wvel_min             =  -2.9090596783418E-01
(PID.TID 0000.0001) %MON dynstat_wvel_mean            =  -9.4128012823345E-04
(PID.TID 0000.0001) %MON dynstat_wvel_sd              =   1.6899239553166E-02
(PID.TID 0000.0001) %MON dynstat_wvel_del2            =   1.4242498928172E-04
(PID.TID 0000.0001) %MON dynstat_theta_max            =   4.4051637823742E+02
(PID.TID 0000.0001) %MON dynstat_theta_min            =   2.8615749945844E+02
(PID.TID 0000.0001) %MON dynstat_theta_mean           =   3.3170545949339E+02
(PID.TID 0000.0001) %MON dynstat_theta_sd             =   4.7431530895552E+01
(PID.TID 0000.0001) %MON dynstat_theta_del2           =   2.3310909281636E-03
(PID.TID 0000.0001) %MON dynstat_salt_max             =   3.6162647176614E+00
(PID.TID 0000.0001) %MON dynstat_salt_min             =  -2.5308389587069E-03
(PID.TID 0000.0001) %MON dynstat_salt_mean            =   5.2494901473593E-02
(PID.TID 0000.0001) %MON dynstat_salt_sd              =   2.1838692214084E-01
(PID.TID 0000.0001) %MON dynstat_salt_del2            =   7.8367067238479E-04
(PID.TID 0000.0001) %MON trAdv_CFL_u_max              =   1.1857077383724E-02
(PID.TID 0000.0001) %MON trAdv_CFL_v_max              =   1.1340072138264E-02
(PID.TID 0000.0001) %MON trAdv_CFL_w_max              =   1.1768027469843E-02
(PID.TID 0000.0001) %MON advcfl_uvel_max              =   1.1916435316027E-02
(PID.TID 0000.0001) %MON advcfl_vvel_max              =   1.3430617911719E-02
(PID.TID 0000.0001) %MON advcfl_wvel_max              =   7.4646722282409E-03
(PID.TID 0000.0001) %MON advcfl_W_hf_max              =   1.1768027469843E-02
(PID.TID 0000.0001) %MON am_eta_mean                  =  -3.9872859573578E+09
(PID.TID 0000.0001) %MON am_uZo_mean                  =   3.9465169639972E+09
(PID.TID 0000.0001) %MON am_tot_mean                  =  -4.0768993360631E+07
(PID.TID 0000.0001) %MON pe_b_mean                    =  -8.0932231263159E-01
(PID.TID 0000.0001) %MON ke_max                       =   3.6209273819057E+01
(PID.TID 0000.0001) %MON ke_mean                      =   6.3761820899643E-01
(PID.TID 0000.0001) %MON ke_vol                       =   4.9523908919847E+19
(PID.TID 0000.0001) %MON vort_r_min                   =  -3.1853633571976E-05
(PID.TID 0000.0001) %MON vort_r_max                   =   1.6223941769528E-05
(PID.TID 0000.0001) %MON vort_a_mean                  =   6.7242814765254E-08
(PID.TID 0000.0001) %MON vort_a_sd                    =   8.3962881516883E-05
(PID.TID 0000.0001) %MON vort_p_mean                  =   6.8939455667585E-08
(PID.TID 0000.0001) %MON vort_p_sd                    =   9.1966133205143E-05
(PID.TID 0000.0001) %MON surfExpan_theta_mean         =   9.0121187117418E-02
(PID.TID 0000.0001) %MON surfExpan_salt_mean          =  -2.2450985893783E-04
(PID.TID 0000.0001) %MON surfExpan_Heat_mean          =  -7.6837697630793E+00
(PID.TID 0000.0001) %MON En_Budget_T2PE_mean          =   1.4187014481881E+01
(PID.TID 0000.0001) // =======================================================
(PID.TID 0000.0001) // End MONITOR dynamic field statistics
(PID.TID 0000.0001) // =======================================================
(PID.TID 0000.0001) // =======================================================
(PID.TID 0000.0001) // Begin MONITOR Land statistics
(PID.TID 0000.0001) // =======================================================
(PID.TID 0000.0001) %MON land_time_sec                =   6.3000000000000E+03
(PID.TID 0000.0001) %MON land_SnwH_ave_G              =   1.5323424063164E-01
(PID.TID 0000.0001) %MON land_SnwH_ave_S              =   5.5905037764686E-01
(PID.TID 0000.0001) %MON land_SnwH_ave_T              =   0.0000000000000E+00
(PID.TID 0000.0001) %MON land_SnwH_ave_N              =   1.2391527781249E-01
(PID.TID 0000.0001) %MON land_SnwH_max_S              =   9.9999180040715E-01
(PID.TID 0000.0001) %MON land_SnwH_max_T              =   0.0000000000000E+00
(PID.TID 0000.0001) %MON land_SnwH_max_N              =   9.9999883298379E-01
(PID.TID 0000.0001) %MON land_Tsrf_ave_G              =  -7.5398210432699E+00
(PID.TID 0000.0001) %MON land_Tsrf_ave_S              =  -6.4177148512842E+00
(PID.TID 0000.0001) %MON land_Tsrf_ave_T              =   1.1899753852761E+01
(PID.TID 0000.0001) %MON land_Tsrf_ave_N              =  -2.0885001862302E+01
(PID.TID 0000.0001) %MON land_Tsrf_min_S              =  -3.1747828241277E+01
(PID.TID 0000.0001) %MON land_Tsrf_min_T              =  -5.1264234652728E+00
(PID.TID 0000.0001) %MON land_Tsrf_min_N              =  -4.9980038137161E+01
(PID.TID 0000.0001) %MON land_Tsrf_max_S              =   2.2376082296052E+01
(PID.TID 0000.0001) %MON land_Tsrf_max_T              =   2.3559169340985E+01
(PID.TID 0000.0001) %MON land_Tsrf_max_N              =   1.0343309342398E+01
(PID.TID 0000.0001) %MON land_Tgr1_ave_G              =  -6.3590272505639E+00
(PID.TID 0000.0001) %MON land_Tgr1_ave_S              =  -6.5831614797934E+00
(PID.TID 0000.0001) %MON land_Tgr1_ave_T              =   1.1899753852761E+01
(PID.TID 0000.0001) %MON land_Tgr1_ave_N              =  -1.8478996511508E+01
(PID.TID 0000.0001) %MON land_Tgr1_min_S              =  -3.9138735424605E+01
(PID.TID 0000.0001) %MON land_Tgr1_min_T              =  -5.1264234652728E+00
(PID.TID 0000.0001) %MON land_Tgr1_min_N              =  -5.4811611988386E+01
(PID.TID 0000.0001) %MON land_Tgr1_max_S              =   2.2376082296052E+01
(PID.TID 0000.0001) %MON land_Tgr1_max_T              =   2.3559169340985E+01
(PID.TID 0000.0001) %MON land_Tgr1_max_N              =   1.0343309342398E+01
(PID.TID 0000.0001) %MON land_Tgr2_ave_G              =   4.2056069896729E+00
(PID.TID 0000.0001) %MON land_Tgr2_ave_S              =  -1.8728817109331E+01
(PID.TID 0000.0001) %MON land_Tgr2_ave_T              =   2.2011414005931E+01
(PID.TID 0000.0001) %MON land_Tgr2_ave_N              =  -2.4479983989050E-01
(PID.TID 0000.0001) %MON land_Tgr2_min_S              =  -6.4756230615835E+01
(PID.TID 0000.0001) %MON land_Tgr2_min_T              =  -9.7045144400151E+00
(PID.TID 0000.0001) %MON land_Tgr2_min_N              =  -4.0196975571306E+01
(PID.TID 0000.0001) %MON land_Tgr2_max_S              =   2.3360577741143E+01
(PID.TID 0000.0001) %MON land_Tgr2_max_T              =   3.1356322580582E+01
(PID.TID 0000.0001) %MON land_Tgr2_max_N              =   2.9827126792037E+01
(PID.TID 0000.0001) %MON land_TotEnerg_G              =  -6.3282399688789E+21
(PID.TID 0000.0001) %MON land_TotEnerg_S              =  -5.0004600613750E+21
(PID.TID 0000.0001) %MON land_TotEnerg_T              =   7.2917495481207E+21
(PID.TID 0000.0001) %MON land_TotEnerg_N              =  -8.6195294556247E+21
(PID.TID 0000.0001) %MON land_grdW_ave_G              =   4.8685408301081E-01
(PID.TID 0000.0001) %MON land_grdW_ave_S              =   3.0861605419664E-01
(PID.TID 0000.0001) %MON land_grdW_ave_T              =   5.6441935904386E-01
(PID.TID 0000.0001) %MON land_grdW_ave_N              =   4.9287760335757E-01
(PID.TID 0000.0001) %MON land_grdW_min_S              =   2.6582075126325E-02
(PID.TID 0000.0001) %MON land_grdW_min_T              =   0.0000000000000E+00
(PID.TID 0000.0001) %MON land_grdW_min_N              =   0.0000000000000E+00
(PID.TID 0000.0001) // =======================================================
(PID.TID 0000.0001) // End MONITOR Land statistics
(PID.TID 0000.0001) // =======================================================
(PID.TID 0000.0001) // =======================================================
(PID.TID 0000.0001) // Begin MONITOR Therm.SeaIce statistics
(PID.TID 0000.0001) // =======================================================
(PID.TID 0000.0001) %MON thSI_time_sec                =   6.3000000000000E+03
(PID.TID 0000.0001) %MON thSI_Ice_Area_G              =   1.7520147659405E+11
(PID.TID 0000.0001) %MON thSI_Ice_Area_S              =   0.0000000000000E+00
(PID.TID 0000.0001) %MON thSI_Ice_Area_N              =   1.7520147659405E+11
(PID.TID 0000.0001) %MON thSI_IceH_ave_G              =   1.1651126602483E-01
(PID.TID 0000.0001) %MON thSI_IceH_ave_S              =   0.0000000000000E+00
(PID.TID 0000.0001) %MON thSI_IceH_ave_N              =   1.1651126602483E-01
(PID.TID 0000.0001) %MON thSI_IceH_max_S              =   0.0000000000000E+00
(PID.TID 0000.0001) %MON thSI_IceH_max_N              =   1.3792411640914E-01
(PID.TID 0000.0001) %MON thSI_SnwH_ave_G              =   0.0000000000000E+00
(PID.TID 0000.0001) %MON thSI_SnwH_ave_S              =   0.0000000000000E+00
(PID.TID 0000.0001) %MON thSI_SnwH_ave_N              =   0.0000000000000E+00
(PID.TID 0000.0001) %MON thSI_SnwH_max_S              =   0.0000000000000E+00
(PID.TID 0000.0001) %MON thSI_SnwH_max_N              =   0.0000000000000E+00
(PID.TID 0000.0001) %MON thSI_Tsrf_ave_G              =  -7.1944287043607E+00
(PID.TID 0000.0001) %MON thSI_Tsrf_ave_S              =   0.0000000000000E+00
(PID.TID 0000.0001) %MON thSI_Tsrf_ave_N              =  -7.1944287043607E+00
(PID.TID 0000.0001) %MON thSI_Tsrf_min_S              =   0.0000000000000E+00
(PID.TID 0000.0001) %MON thSI_Tsrf_min_N              =  -7.7469689529074E+00
(PID.TID 0000.0001) %MON thSI_Tsrf_max_S              =   0.0000000000000E+00
(PID.TID 0000.0001) %MON thSI_Tsrf_max_N              =  -3.5398091826957E+00
(PID.TID 0000.0001) %MON thSI_Tic1_ave_G              =  -5.1437001264095E+00
(PID.TID 0000.0001) %MON thSI_Tic1_ave_S              =   0.0000000000000E+00
(PID.TID 0000.0001) %MON thSI_Tic1_ave_N              =  -5.1437001264095E+00
(PID.TID 0000.0001) %MON thSI_Tic1_min_S              =   0.0000000000000E+00
(PID.TID 0000.0001) %MON thSI_Tic1_min_N              =  -5.2773499622236E+00
(PID.TID 0000.0001) %MON thSI_Tic1_max_S              =   0.0000000000000E+00
(PID.TID 0000.0001) %MON thSI_Tic1_max_N              =  -3.0757728447675E+00
(PID.TID 0000.0001) %MON thSI_Tic2_ave_G              =  -2.5707237777762E+00
(PID.TID 0000.0001) %MON thSI_Tic2_ave_S              =   0.0000000000000E+00
(PID.TID 0000.0001) %MON thSI_Tic2_ave_N              =  -2.5707237777762E+00
(PID.TID 0000.0001) %MON thSI_Tic2_min_S              =   0.0000000000000E+00
(PID.TID 0000.0001) %MON thSI_Tic2_min_N              =  -2.6655455192483E+00
(PID.TID 0000.0001) %MON thSI_Tic2_max_S              =   0.0000000000000E+00
(PID.TID 0000.0001) %MON thSI_Tic2_max_N              =  -2.1471402651042E+00
(PID.TID 0000.0001) %MON thSI_TotEnerg_G              =  -6.2530123229119E+18
(PID.TID 0000.0001) // =======================================================
(PID.TID 0000.0001) // End MONITOR Therm.SeaIce statistics
(PID.TID 0000.0001) // =======================================================
 cg2d: Sum(rhs),rhsMax =  -9.45874489843845E-11  2.43921549384649E+04
(PID.TID 0000.0001)      cg2d_init_res =   1.28208590509106E+04
(PID.TID 0000.0001)      cg2d_iters(min,last) =      -1      16
(PID.TID 0000.0001)      cg2d_last_res =   9.02011407911790E-11
(PID.TID 0000.0001) // =======================================================
(PID.TID 0000.0001) // Begin MONITOR dynamic field statistics
(PID.TID 0000.0001) // =======================================================
(PID.TID 0000.0001) %MON time_tsnumber                =                    15
(PID.TID 0000.0001) %MON time_secondsf                =   6.7500000000000E+03
(PID.TID 0000.0001) %MON dynstat_eta_max              =   4.6557405311396E+03
(PID.TID 0000.0001) %MON dynstat_eta_min              =  -1.2084321256707E+03
(PID.TID 0000.0001) %MON dynstat_eta_mean             =   4.2172614175166E-15
(PID.TID 0000.0001) %MON dynstat_eta_sd               =   5.1890826034255E+02
(PID.TID 0000.0001) %MON dynstat_eta_del2             =   4.5637868678756E+00
(PID.TID 0000.0001) %MON dynstat_uvel_max             =   6.5492544682926E+00
(PID.TID 0000.0001) %MON dynstat_uvel_min             =  -8.7234189180227E+00
(PID.TID 0000.0001) %MON dynstat_uvel_mean            =  -9.0546685638798E-03
(PID.TID 0000.0001) %MON dynstat_uvel_sd              =   7.8375332365099E-01
(PID.TID 0000.0001) %MON dynstat_uvel_del2            =   1.3572266158724E-03
(PID.TID 0000.0001) %MON dynstat_vvel_max             =   7.5613282313370E+00
(PID.TID 0000.0001) %MON dynstat_vvel_min             =  -8.8643889334964E+00
(PID.TID 0000.0001) %MON dynstat_vvel_mean            =   2.1511197325802E-02
(PID.TID 0000.0001) %MON dynstat_vvel_sd              =   8.1299764009867E-01
(PID.TID 0000.0001) %MON dynstat_vvel_del2            =   1.3364515968745E-03
(PID.TID 0000.0001) %MON dynstat_wvel_max             =   2.0221250374702E-01
(PID.TID 0000.0001) %MON dynstat_wvel_min             =  -2.6067844298235E-01
(PID.TID 0000.0001) %MON dynstat_wvel_mean            =  -7.7833920416541E-04
(PID.TID 0000.0001) %MON dynstat_wvel_sd              =   1.6246431638824E-02
(PID.TID 0000.0001) %MON dynstat_wvel_del2            =   1.4299615788002E-04
(PID.TID 0000.0001) %MON dynstat_theta_max            =   4.4073662518155E+02
(PID.TID 0000.0001) %MON dynstat_theta_min            =   2.8592073661243E+02
(PID.TID 0000.0001) %MON dynstat_theta_mean           =   3.3170386528868E+02
(PID.TID 0000.0001) %MON dynstat_theta_sd             =   4.7433367701947E+01
(PID.TID 0000.0001) %MON dynstat_theta_del2           =   2.3217273195079E-03
(PID.TID 0000.0001) %MON dynstat_salt_max             =   3.7318644895668E+00
(PID.TID 0000.0001) %MON dynstat_salt_min             =  -2.8708749047005E-03
(PID.TID 0000.0001) %MON dynstat_salt_mean            =   5.6028703345054E-02
(PID.TID 0000.0001) %MON dynstat_salt_sd              =   2.3190192421628E-01
(PID.TID 0000.0001) %MON dynstat_salt_del2            =   8.1489225191575E-04
(PID.TID 0000.0001) %MON trAdv_CFL_u_max              =   1.2199844381047E-02
(PID.TID 0000.0001) %MON trAdv_CFL_v_max              =   1.0396237462974E-02
(PID.TID 0000.0001) %MON trAdv_CFL_w_max              =   1.1301744480811E-02
(PID.TID 0000.0001) %MON advcfl_uvel_max              =   1.2252812387979E-02
(PID.TID 0000.0001) %MON advcfl_vvel_max              =   1.2715992348562E-02
(PID.TID 0000.0001) %MON advcfl_wvel_max              =   6.7031599624033E-03
(PID.TID 0000.0001) %MON advcfl_W_hf_max              =   1.1301744480811E-02
(PID.TID 0000.0001) %MON am_eta_mean                  =  -4.5503660980270E+09
(PID.TID 0000.0001) %MON am_uZo_mean                  =   4.5018179323604E+09
(PID.TID 0000.0001) %MON am_tot_mean                  =  -4.8548165666532E+07
(PID.TID 0000.0001) %MON pe_b_mean                    =  -8.1143679725619E-01
(PID.TID 0000.0001) %MON ke_max                       =   3.4829387099513E+01
(PID.TID 0000.0001) %MON ke_mean                      =   6.3412475232233E-01
(PID.TID 0000.0001) %MON ke_vol                       =   4.9523908919847E+19
(PID.TID 0000.0001) %MON vort_r_min                   =  -3.1364063507254E-05
(PID.TID 0000.0001) %MON vort_r_max                   =   1.5336567933166E-05
(PID.TID 0000.0001) %MON vort_a_mean                  =   6.7242814765271E-08
(PID.TID 0000.0001) %MON vort_a_sd                    =   8.3965657337056E-05
(PID.TID 0000.0001) %MON vort_p_mean                  =   6.8939457185313E-08
(PID.TID 0000.0001) %MON vort_p_sd                    =   9.1983406411832E-05
(PID.TID 0000.0001) %MON surfExpan_theta_mean         =   7.3709808596932E-02
(PID.TID 0000.0001) %MON surfExpan_salt_mean          =  -2.6414423433962E-04
(PID.TID 0000.0001) %MON surfExpan_Heat_mean          =  -6.3669676753473E+00
(PID.TID 0000.0001) %MON En_Budget_T2PE_mean          =   1.1678218363427E+01
(PID.TID 0000.0001) // =======================================================
(PID.TID 0000.0001) // End MONITOR dynamic field statistics
(PID.TID 0000.0001) // =======================================================
(PID.TID 0000.0001) // =======================================================
(PID.TID 0000.0001) // Begin MONITOR Land statistics
(PID.TID 0000.0001) // =======================================================
(PID.TID 0000.0001) %MON land_time_sec                =   6.7500000000000E+03
(PID.TID 0000.0001) %MON land_SnwH_ave_G              =   1.5323324034272E-01
(PID.TID 0000.0001) %MON land_SnwH_ave_S              =   5.5904939842051E-01
(PID.TID 0000.0001) %MON land_SnwH_ave_T              =   0.0000000000000E+00
(PID.TID 0000.0001) %MON land_SnwH_ave_N              =   1.2391360272748E-01
(PID.TID 0000.0001) %MON land_SnwH_max_S              =   9.9999110392250E-01
(PID.TID 0000.0001) %MON land_SnwH_max_T              =   0.0000000000000E+00
(PID.TID 0000.0001) %MON land_SnwH_max_N              =   9.9999875161037E-01
(PID.TID 0000.0001) %MON land_Tsrf_ave_G              =  -7.6491852622467E+00
(PID.TID 0000.0001) %MON land_Tsrf_ave_S              =  -6.5003392937793E+00
(PID.TID 0000.0001) %MON land_Tsrf_ave_T              =   1.1668162763744E+01
(PID.TID 0000.0001) %MON land_Tsrf_ave_N              =  -2.0921420792660E+01
(PID.TID 0000.0001) %MON land_Tsrf_min_S              =  -3.1658147267157E+01
(PID.TID 0000.0001) %MON land_Tsrf_min_T              =  -4.9690265214393E+00
(PID.TID 0000.0001) %MON land_Tsrf_min_N              =  -4.9991715134220E+01
(PID.TID 0000.0001) %MON land_Tsrf_max_S              =   2.2072029742583E+01
(PID.TID 0000.0001) %MON land_Tsrf_max_T              =   2.3127506155556E+01
(PID.TID 0000.0001) %MON land_Tsrf_max_N              =   1.0125472528029E+01
(PID.TID 0000.0001) %MON land_Tgr1_ave_G              =  -6.4728430837353E+00
(PID.TID 0000.0001) %MON land_Tgr1_ave_S              =  -6.6713268535259E+00
(PID.TID 0000.0001) %MON land_Tgr1_ave_T              =   1.1668162763744E+01
(PID.TID 0000.0001) %MON land_Tgr1_ave_N              =  -1.8522486345289E+01
(PID.TID 0000.0001) %MON land_Tgr1_min_S              =  -3.9147628893529E+01
(PID.TID 0000.0001) %MON land_Tgr1_min_T              =  -4.9690265214393E+00
(PID.TID 0000.0001) %MON land_Tgr1_min_N              =  -5.4796952290491E+01
(PID.TID 0000.0001) %MON land_Tgr1_max_S              =   2.2072029742583E+01
(PID.TID 0000.0001) %MON land_Tgr1_max_T              =   2.3127506155556E+01
(PID.TID 0000.0001) %MON land_Tgr1_max_N              =   1.0125472528029E+01
(PID.TID 0000.0001) %MON land_Tgr2_ave_G              =   4.2054433649256E+00
(PID.TID 0000.0001) %MON land_Tgr2_ave_S              =  -1.8728615474511E+01
(PID.TID 0000.0001) %MON land_Tgr2_ave_T              =   2.2011245185730E+01
(PID.TID 0000.0001) %MON land_Tgr2_ave_N              =  -2.4507848324416E-01
(PID.TID 0000.0001) %MON land_Tgr2_min_S              =  -6.4755798796771E+01
(PID.TID 0000.0001) %MON land_Tgr2_min_T              =  -9.7044546053929E+00
(PID.TID 0000.0001) %MON land_Tgr2_min_N              =  -4.0197213332955E+01
(PID.TID 0000.0001) %MON land_Tgr2_max_S              =   2.3360546067929E+01
(PID.TID 0000.0001) %MON land_Tgr2_max_T              =   3.1355930410064E+01
(PID.TID 0000.0001) %MON land_Tgr2_max_N              =   2.9826660079921E+01
(PID.TID 0000.0001) %MON land_TotEnerg_G              =  -6.3312840932054E+21
(PID.TID 0000.0001) %MON land_TotEnerg_S              =  -5.0007424559880E+21
(PID.TID 0000.0001) %MON land_TotEnerg_T              =   7.2897374608414E+21
(PID.TID 0000.0001) %MON land_TotEnerg_N              =  -8.6202790980588E+21
(PID.TID 0000.0001) %MON land_grdW_ave_G              =   4.8684417513363E-01
(PID.TID 0000.0001) %MON land_grdW_ave_S              =   3.0860705052347E-01
(PID.TID 0000.0001) %MON land_grdW_ave_T              =   5.6439465813046E-01
(PID.TID 0000.0001) %MON land_grdW_ave_N              =   4.9287728051664E-01
(PID.TID 0000.0001) %MON land_grdW_min_S              =   2.6661094304779E-02
(PID.TID 0000.0001) %MON land_grdW_min_T              =   0.0000000000000E+00
(PID.TID 0000.0001) %MON land_grdW_min_N              =   0.0000000000000E+00
(PID.TID 0000.0001) // =======================================================
(PID.TID 0000.0001) // End MONITOR Land statistics
(PID.TID 0000.0001) // =======================================================
(PID.TID 0000.0001) // =======================================================
(PID.TID 0000.0001) // Begin MONITOR Therm.SeaIce statistics
(PID.TID 0000.0001) // =======================================================
(PID.TID 0000.0001) %MON thSI_time_sec                =   6.7500000000000E+03
(PID.TID 0000.0001) %MON thSI_Ice_Area_G              =   1.8456975447946E+11
(PID.TID 0000.0001) %MON thSI_Ice_Area_S              =   0.0000000000000E+00
(PID.TID 0000.0001) %MON thSI_Ice_Area_N              =   1.8456975447946E+11
(PID.TID 0000.0001) %MON thSI_IceH_ave_G              =   1.1848717642330E-01
(PID.TID 0000.0001) %MON thSI_IceH_ave_S              =   0.0000000000000E+00
(PID.TID 0000.0001) %MON thSI_IceH_ave_N              =   1.1848717642330E-01
(PID.TID 0000.0001) %MON thSI_IceH_max_S              =   0.0000000000000E+00
(PID.TID 0000.0001) %MON thSI_IceH_max_N              =   1.4075541620759E-01
(PID.TID 0000.0001) %MON thSI_SnwH_ave_G              =   0.0000000000000E+00
(PID.TID 0000.0001) %MON thSI_SnwH_ave_S              =   0.0000000000000E+00
(PID.TID 0000.0001) %MON thSI_SnwH_ave_N              =   0.0000000000000E+00
(PID.TID 0000.0001) %MON thSI_SnwH_max_S              =   0.0000000000000E+00
(PID.TID 0000.0001) %MON thSI_SnwH_max_N              =   0.0000000000000E+00
(PID.TID 0000.0001) %MON thSI_Tsrf_ave_G              =  -7.3562655153403E+00
(PID.TID 0000.0001) %MON thSI_Tsrf_ave_S              =   0.0000000000000E+00
(PID.TID 0000.0001) %MON thSI_Tsrf_ave_N              =  -7.3562655153403E+00
(PID.TID 0000.0001) %MON thSI_Tsrf_min_S              =   0.0000000000000E+00
(PID.TID 0000.0001) %MON thSI_Tsrf_min_N              =  -7.9336582551282E+00
(PID.TID 0000.0001) %MON thSI_Tsrf_max_S              =   0.0000000000000E+00
(PID.TID 0000.0001) %MON thSI_Tsrf_max_N              =  -3.5639651655608E+00
(PID.TID 0000.0001) %MON thSI_Tic1_ave_G              =  -5.3156159325212E+00
(PID.TID 0000.0001) %MON thSI_Tic1_ave_S              =   0.0000000000000E+00
(PID.TID 0000.0001) %MON thSI_Tic1_ave_N              =  -5.3156159325212E+00
(PID.TID 0000.0001) %MON thSI_Tic1_min_S              =   0.0000000000000E+00
(PID.TID 0000.0001) %MON thSI_Tic1_min_N              =  -5.4552016508270E+00
(PID.TID 0000.0001) %MON thSI_Tic1_max_S              =   0.0000000000000E+00
(PID.TID 0000.0001) %MON thSI_Tic1_max_N              =  -3.0938325096611E+00
(PID.TID 0000.0001) %MON thSI_Tic2_ave_G              =  -2.6267903567216E+00
(PID.TID 0000.0001) %MON thSI_Tic2_ave_S              =   0.0000000000000E+00
(PID.TID 0000.0001) %MON thSI_Tic2_ave_N              =  -2.6267903567216E+00
(PID.TID 0000.0001) %MON thSI_Tic2_min_S              =   0.0000000000000E+00
(PID.TID 0000.0001) %MON thSI_Tic2_min_N              =  -2.7269367927575E+00
(PID.TID 0000.0001) %MON thSI_Tic2_max_S              =   0.0000000000000E+00
(PID.TID 0000.0001) %MON thSI_Tic2_max_N              =  -2.1531122783927E+00
(PID.TID 0000.0001) %MON thSI_TotEnerg_G              =  -6.7048282074622E+18
(PID.TID 0000.0001) // =======================================================
(PID.TID 0000.0001) // End MONITOR Therm.SeaIce statistics
(PID.TID 0000.0001) // =======================================================
 cg2d: Sum(rhs),rhsMax =   3.05590219795704E-10  2.45259196577609E+04
(PID.TID 0000.0001)      cg2d_init_res =   1.23254521654449E+04
(PID.TID 0000.0001)      cg2d_iters(min,last) =      -1      16
(PID.TID 0000.0001)      cg2d_last_res =   9.26959075572563E-11
(PID.TID 0000.0001) // =======================================================
(PID.TID 0000.0001) // Begin MONITOR dynamic field statistics
(PID.TID 0000.0001) // =======================================================
(PID.TID 0000.0001) %MON time_tsnumber                =                    16
(PID.TID 0000.0001) %MON time_secondsf                =   7.2000000000000E+03
(PID.TID 0000.0001) %MON dynstat_eta_max              =   4.6866997903406E+03
(PID.TID 0000.0001) %MON dynstat_eta_min              =  -1.1154163108137E+03
(PID.TID 0000.0001) %MON dynstat_eta_mean             =  -1.9479731309481E-14
(PID.TID 0000.0001) %MON dynstat_eta_sd               =   5.2691063926598E+02
(PID.TID 0000.0001) %MON dynstat_eta_del2             =   4.5353385107973E+00
(PID.TID 0000.0001) %MON dynstat_uvel_max             =   6.5013973390667E+00
(PID.TID 0000.0001) %MON dynstat_uvel_min             =  -8.6970426493622E+00
(PID.TID 0000.0001) %MON dynstat_uvel_mean            =  -8.8570339844268E-03
(PID.TID 0000.0001) %MON dynstat_uvel_sd              =   7.8998572711956E-01
(PID.TID 0000.0001) %MON dynstat_uvel_del2            =   1.3620461809350E-03
(PID.TID 0000.0001) %MON dynstat_vvel_max             =   6.9153482511354E+00
(PID.TID 0000.0001) %MON dynstat_vvel_min             =  -8.2787859914943E+00
(PID.TID 0000.0001) %MON dynstat_vvel_mean            =   2.2831731370052E-02
(PID.TID 0000.0001) %MON dynstat_vvel_sd              =   8.0576730937144E-01
(PID.TID 0000.0001) %MON dynstat_vvel_del2            =   1.3215550769004E-03
(PID.TID 0000.0001) %MON dynstat_wvel_max             =   2.0705424981247E-01
(PID.TID 0000.0001) %MON dynstat_wvel_min             =  -2.3380775373400E-01
(PID.TID 0000.0001) %MON dynstat_wvel_mean            =  -6.1308616201741E-04
(PID.TID 0000.0001) %MON dynstat_wvel_sd              =   1.5801262101567E-02
(PID.TID 0000.0001) %MON dynstat_wvel_del2            =   1.4555399073976E-04
(PID.TID 0000.0001) %MON dynstat_theta_max            =   4.4090319298440E+02
(PID.TID 0000.0001) %MON dynstat_theta_min            =   2.8568625318995E+02
(PID.TID 0000.0001) %MON dynstat_theta_mean           =   3.3170222339361E+02
(PID.TID 0000.0001) %MON dynstat_theta_sd             =   4.7435237076571E+01
(PID.TID 0000.0001) %MON dynstat_theta_del2           =   2.3001862075433E-03
(PID.TID 0000.0001) %MON dynstat_salt_max             =   3.8382174101574E+00
(PID.TID 0000.0001) %MON dynstat_salt_min             =  -3.2317833777422E-03
(PID.TID 0000.0001) %MON dynstat_salt_mean            =   5.9543359578874E-02
(PID.TID 0000.0001) %MON dynstat_salt_sd              =   2.4521215590872E-01
(PID.TID 0000.0001) %MON dynstat_salt_del2            =   8.4521713176826E-04
(PID.TID 0000.0001) %MON trAdv_CFL_u_max              =   1.2169068887417E-02
(PID.TID 0000.0001) %MON trAdv_CFL_v_max              =   9.4965248291795E-03
(PID.TID 0000.0001) %MON trAdv_CFL_w_max              =   1.0829256522647E-02
(PID.TID 0000.0001) %MON advcfl_uvel_max              =   1.2215764588896E-02
(PID.TID 0000.0001) %MON advcfl_vvel_max              =   1.1875943182662E-02
(PID.TID 0000.0001) %MON advcfl_wvel_max              =   6.0121993817313E-03
(PID.TID 0000.0001) %MON advcfl_W_hf_max              =   1.0829256522647E-02
(PID.TID 0000.0001) %MON am_eta_mean                  =  -5.1376266074389E+09
(PID.TID 0000.0001) %MON am_uZo_mean                  =   5.0806291964126E+09
(PID.TID 0000.0001) %MON am_tot_mean                  =  -5.6997411026301E+07
(PID.TID 0000.0001) %MON pe_b_mean                    =  -8.1582533933357E-01
(PID.TID 0000.0001) %MON ke_max                       =   3.3523556867216E+01
(PID.TID 0000.0001) %MON ke_mean                      =   6.3320701856123E-01
(PID.TID 0000.0001) %MON ke_vol                       =   4.9523908919847E+19
(PID.TID 0000.0001) %MON vort_r_min                   =  -3.0455429988286E-05
(PID.TID 0000.0001) %MON vort_r_max                   =   1.4677086406766E-05
(PID.TID 0000.0001) %MON vort_a_mean                  =   6.7242814765318E-08
(PID.TID 0000.0001) %MON vort_a_sd                    =   8.3968463282197E-05
(PID.TID 0000.0001) %MON vort_p_mean                  =   6.8939458615202E-08
(PID.TID 0000.0001) %MON vort_p_sd                    =   9.1997521556778E-05
(PID.TID 0000.0001) %MON surfExpan_theta_mean         =   5.7320177998698E-02
(PID.TID 0000.0001) %MON surfExpan_salt_mean          =  -3.0903754854093E-04
(PID.TID 0000.0001) %MON surfExpan_Heat_mean          =  -5.0197233871276E+00
(PID.TID 0000.0001) %MON En_Budget_T2PE_mean          =   9.1385151204710E+00
(PID.TID 0000.0001) // =======================================================
(PID.TID 0000.0001) // End MONITOR dynamic field statistics
(PID.TID 0000.0001) // =======================================================
(PID.TID 0000.0001) // =======================================================
(PID.TID 0000.0001) // Begin MONITOR Land statistics
(PID.TID 0000.0001) // =======================================================
(PID.TID 0000.0001) %MON land_time_sec                =   7.2000000000000E+03
(PID.TID 0000.0001) %MON land_SnwH_ave_G              =   1.5323224437073E-01
(PID.TID 0000.0001) %MON land_SnwH_ave_S              =   5.5904842784477E-01
(PID.TID 0000.0001) %MON land_SnwH_ave_T              =   0.0000000000000E+00
(PID.TID 0000.0001) %MON land_SnwH_ave_N              =   1.2391193343630E-01
(PID.TID 0000.0001) %MON land_SnwH_max_S              =   9.9999040254041E-01
(PID.TID 0000.0001) %MON land_SnwH_max_T              =   0.0000000000000E+00
(PID.TID 0000.0001) %MON land_SnwH_max_N              =   9.9999867034123E-01
(PID.TID 0000.0001) %MON land_Tsrf_ave_G              =  -7.7480171371597E+00
(PID.TID 0000.0001) %MON land_Tsrf_ave_S              =  -6.5732980113438E+00
(PID.TID 0000.0001) %MON land_Tsrf_ave_T              =   1.1458888468657E+01
(PID.TID 0000.0001) %MON land_Tsrf_ave_N              =  -2.0954895562033E+01
(PID.TID 0000.0001) %MON land_Tsrf_min_S              =  -3.1592063685990E+01
(PID.TID 0000.0001) %MON land_Tsrf_min_T              =  -4.8168017796631E+00
(PID.TID 0000.0001) %MON land_Tsrf_min_N              =  -5.0000464448605E+01
(PID.TID 0000.0001) %MON land_Tsrf_max_S              =   2.1800600064581E+01
(PID.TID 0000.0001) %MON land_Tsrf_max_T              =   2.2736888655254E+01
(PID.TID 0000.0001) %MON land_Tsrf_max_N              =   9.9180810728030E+00
(PID.TID 0000.0001) %MON land_Tgr1_ave_G              =  -6.5761563308852E+00
(PID.TID 0000.0001) %MON land_Tgr1_ave_S              =  -6.7500744054083E+00
(PID.TID 0000.0001) %MON land_Tgr1_ave_T              =   1.1458888468657E+01
(PID.TID 0000.0001) %MON land_Tgr1_ave_N              =  -1.8563010882751E+01
(PID.TID 0000.0001) %MON land_Tgr1_min_S              =  -3.9156559016689E+01
(PID.TID 0000.0001) %MON land_Tgr1_min_T              =  -4.8168017796631E+00
(PID.TID 0000.0001) %MON land_Tgr1_min_N              =  -5.4782325299112E+01
(PID.TID 0000.0001) %MON land_Tgr1_max_S              =   2.1800600064581E+01
(PID.TID 0000.0001) %MON land_Tgr1_max_T              =   2.2736888655254E+01
(PID.TID 0000.0001) %MON land_Tgr1_max_N              =   9.9180810728030E+00
(PID.TID 0000.0001) %MON land_Tgr2_ave_G              =   4.2052781169367E+00
(PID.TID 0000.0001) %MON land_Tgr2_ave_S              =  -1.8728415088653E+01
(PID.TID 0000.0001) %MON land_Tgr2_ave_T              =   2.2011073177134E+01
(PID.TID 0000.0001) %MON land_Tgr2_ave_N              =  -2.4535782609090E-01
(PID.TID 0000.0001) %MON land_Tgr2_min_S              =  -6.4755367154729E+01
(PID.TID 0000.0001) %MON land_Tgr2_min_T              =  -9.7043928482494E+00
(PID.TID 0000.0001) %MON land_Tgr2_min_N              =  -4.0197450841664E+01
(PID.TID 0000.0001) %MON land_Tgr2_max_S              =   2.3360509427477E+01
(PID.TID 0000.0001) %MON land_Tgr2_max_T              =   3.1355533138594E+01
(PID.TID 0000.0001) %MON land_Tgr2_max_N              =   2.9826186325964E+01
(PID.TID 0000.0001) %MON land_TotEnerg_G              =  -6.3340817895412E+21
(PID.TID 0000.0001) %MON land_TotEnerg_S              =  -5.0009923719062E+21
(PID.TID 0000.0001) %MON land_TotEnerg_T              =   7.2879212259600E+21
(PID.TID 0000.0001) %MON land_TotEnerg_N              =  -8.6210106435951E+21
(PID.TID 0000.0001) %MON land_grdW_ave_G              =   4.8683460177939E-01
(PID.TID 0000.0001) %MON land_grdW_ave_S              =   3.0859821910285E-01
(PID.TID 0000.0001) %MON land_grdW_ave_T              =   5.6437086346006E-01
(PID.TID 0000.0001) %MON land_grdW_ave_N              =   4.9287696306035E-01
(PID.TID 0000.0001) %MON land_grdW_min_S              =   2.6741894252047E-02
(PID.TID 0000.0001) %MON land_grdW_min_T              =   0.0000000000000E+00
(PID.TID 0000.0001) %MON land_grdW_min_N              =   0.0000000000000E+00
(PID.TID 0000.0001) // =======================================================
(PID.TID 0000.0001) // End MONITOR Land statistics
(PID.TID 0000.0001) // =======================================================
(PID.TID 0000.0001) // =======================================================
(PID.TID 0000.0001) // Begin MONITOR Therm.SeaIce statistics
(PID.TID 0000.0001) // =======================================================
(PID.TID 0000.0001) %MON thSI_time_sec                =   7.2000000000000E+03
(PID.TID 0000.0001) %MON thSI_Ice_Area_G              =   1.9365168605084E+11
(PID.TID 0000.0001) %MON thSI_Ice_Area_S              =   0.0000000000000E+00
(PID.TID 0000.0001) %MON thSI_Ice_Area_N              =   1.9365168605084E+11
(PID.TID 0000.0001) %MON thSI_IceH_ave_G              =   1.2045452686444E-01
(PID.TID 0000.0001) %MON thSI_IceH_ave_S              =   0.0000000000000E+00
(PID.TID 0000.0001) %MON thSI_IceH_ave_N              =   1.2045452686444E-01
(PID.TID 0000.0001) %MON thSI_IceH_max_S              =   0.0000000000000E+00
(PID.TID 0000.0001) %MON thSI_IceH_max_N              =   1.4357302995907E-01
(PID.TID 0000.0001) %MON thSI_SnwH_ave_G              =   0.0000000000000E+00
(PID.TID 0000.0001) %MON thSI_SnwH_ave_S              =   0.0000000000000E+00
(PID.TID 0000.0001) %MON thSI_SnwH_ave_N              =   0.0000000000000E+00
(PID.TID 0000.0001) %MON thSI_SnwH_max_S              =   0.0000000000000E+00
(PID.TID 0000.0001) %MON thSI_SnwH_max_N              =   0.0000000000000E+00
(PID.TID 0000.0001) %MON thSI_Tsrf_ave_G              =  -7.5057485831666E+00
(PID.TID 0000.0001) %MON thSI_Tsrf_ave_S              =   0.0000000000000E+00
(PID.TID 0000.0001) %MON thSI_Tsrf_ave_N              =  -7.5057485831666E+00
(PID.TID 0000.0001) %MON thSI_Tsrf_min_S              =   0.0000000000000E+00
(PID.TID 0000.0001) %MON thSI_Tsrf_min_N              =  -8.1076538133578E+00
(PID.TID 0000.0001) %MON thSI_Tsrf_max_S              =   0.0000000000000E+00
(PID.TID 0000.0001) %MON thSI_Tsrf_max_N              =  -3.5876261167717E+00
(PID.TID 0000.0001) %MON thSI_Tic1_ave_G              =  -5.4738123688303E+00
(PID.TID 0000.0001) %MON thSI_Tic1_ave_S              =   0.0000000000000E+00
(PID.TID 0000.0001) %MON thSI_Tic1_ave_N              =  -5.4738123688303E+00
(PID.TID 0000.0001) %MON thSI_Tic1_min_S              =   0.0000000000000E+00
(PID.TID 0000.0001) %MON thSI_Tic1_min_N              =  -5.6183806540123E+00
(PID.TID 0000.0001) %MON thSI_Tic1_max_S              =   0.0000000000000E+00
(PID.TID 0000.0001) %MON thSI_Tic1_max_N              =  -3.1115197071528E+00
(PID.TID 0000.0001) %MON thSI_Tic2_ave_G              =  -2.6787860024277E+00
(PID.TID 0000.0001) %MON thSI_Tic2_ave_S              =   0.0000000000000E+00
(PID.TID 0000.0001) %MON thSI_Tic2_ave_N              =  -2.6787860024277E+00
(PID.TID 0000.0001) %MON thSI_Tic2_min_S              =   0.0000000000000E+00
(PID.TID 0000.0001) %MON thSI_Tic2_min_N              =  -2.7837312471056E+00
(PID.TID 0000.0001) %MON thSI_Tic2_max_S              =   0.0000000000000E+00
(PID.TID 0000.0001) %MON thSI_Tic2_max_N              =  -2.1589601407463E+00
(PID.TID 0000.0001) %MON thSI_TotEnerg_G              =  -7.1571362258579E+18
(PID.TID 0000.0001) // =======================================================
(PID.TID 0000.0001) // End MONITOR Therm.SeaIce statistics
(PID.TID 0000.0001) // =======================================================
(PID.TID 0000.0001)   Exporting atmospheric surf fluxes at iter=        16
(PID.TID 0000.0001)   Importing  oceanic surface fields at iter=        16
 cg2d: Sum(rhs),rhsMax =   1.89174897968769E-10  2.45191464776371E+04
(PID.TID 0000.0001)      cg2d_init_res =   1.19946457487292E+04
(PID.TID 0000.0001)      cg2d_iters(min,last) =      -1      16
(PID.TID 0000.0001)      cg2d_last_res =   9.19972339981781E-11
(PID.TID 0000.0001) // =======================================================
(PID.TID 0000.0001) // Begin MONITOR dynamic field statistics
(PID.TID 0000.0001) // =======================================================
(PID.TID 0000.0001) %MON time_tsnumber                =                    17
(PID.TID 0000.0001) %MON time_secondsf                =   7.6500000000000E+03
(PID.TID 0000.0001) %MON dynstat_eta_max              =   4.6600739379675E+03
(PID.TID 0000.0001) %MON dynstat_eta_min              =  -1.0446025975564E+03
(PID.TID 0000.0001) %MON dynstat_eta_mean             =   1.9680553281744E-14
(PID.TID 0000.0001) %MON dynstat_eta_sd               =   5.3199775352040E+02
(PID.TID 0000.0001) %MON dynstat_eta_del2             =   4.5035076667291E+00
(PID.TID 0000.0001) %MON dynstat_uvel_max             =   6.8705038256818E+00
(PID.TID 0000.0001) %MON dynstat_uvel_min             =  -8.4467398062020E+00
(PID.TID 0000.0001) %MON dynstat_uvel_mean            =  -8.3195412102549E-03
(PID.TID 0000.0001) %MON dynstat_uvel_sd              =   7.9740974004743E-01
(PID.TID 0000.0001) %MON dynstat_uvel_del2            =   1.3706421990318E-03
(PID.TID 0000.0001) %MON dynstat_vvel_max             =   6.1997067138252E+00
(PID.TID 0000.0001) %MON dynstat_vvel_min             =  -7.6527277259596E+00
(PID.TID 0000.0001) %MON dynstat_vvel_mean            =   2.3981374761602E-02
(PID.TID 0000.0001) %MON dynstat_vvel_sd              =   8.0077931983372E-01
(PID.TID 0000.0001) %MON dynstat_vvel_del2            =   1.3221135846202E-03
(PID.TID 0000.0001) %MON dynstat_wvel_max             =   2.0806462354591E-01
(PID.TID 0000.0001) %MON dynstat_wvel_min             =  -2.1986678433597E-01
(PID.TID 0000.0001) %MON dynstat_wvel_mean            =  -4.4770425700848E-04
(PID.TID 0000.0001) %MON dynstat_wvel_sd              =   1.5535562930315E-02
(PID.TID 0000.0001) %MON dynstat_wvel_del2            =   1.4829262076276E-04
(PID.TID 0000.0001) %MON dynstat_theta_max            =   4.4101541199809E+02
(PID.TID 0000.0001) %MON dynstat_theta_min            =   2.8545393065520E+02
(PID.TID 0000.0001) %MON dynstat_theta_mean           =   3.3170053443172E+02
(PID.TID 0000.0001) %MON dynstat_theta_sd             =   4.7437135416434E+01
(PID.TID 0000.0001) %MON dynstat_theta_del2           =   2.2736316630221E-03
(PID.TID 0000.0001) %MON dynstat_salt_max             =   3.9362570843650E+00
(PID.TID 0000.0001) %MON dynstat_salt_min             =  -3.6133708446364E-03
(PID.TID 0000.0001) %MON dynstat_salt_mean            =   6.3038303485618E-02
(PID.TID 0000.0001) %MON dynstat_salt_sd              =   2.5832823343226E-01
(PID.TID 0000.0001) %MON dynstat_salt_del2            =   8.7469423135879E-04
(PID.TID 0000.0001) %MON trAdv_CFL_u_max              =   1.1822889765299E-02
(PID.TID 0000.0001) %MON trAdv_CFL_v_max              =   9.0378909561848E-03
(PID.TID 0000.0001) %MON trAdv_CFL_w_max              =   1.0371581243979E-02
(PID.TID 0000.0001) %MON advcfl_uvel_max              =   1.1864192137058E-02
(PID.TID 0000.0001) %MON advcfl_vvel_max              =   1.0977860734563E-02
(PID.TID 0000.0001) %MON advcfl_wvel_max              =   5.6537173114964E-03
(PID.TID 0000.0001) %MON advcfl_W_hf_max              =   1.0371581243979E-02
(PID.TID 0000.0001) %MON am_eta_mean                  =  -5.7458823661335E+09
(PID.TID 0000.0001) %MON am_uZo_mean                  =   5.6800176882400E+09
(PID.TID 0000.0001) %MON am_tot_mean                  =  -6.5864677893562E+07
(PID.TID 0000.0001) %MON pe_b_mean                    =  -8.2285821878774E-01
(PID.TID 0000.0001) %MON ke_max                       =   3.2439258523013E+01
(PID.TID 0000.0001) %MON ke_mean                      =   6.3510129709727E-01
(PID.TID 0000.0001) %MON ke_vol                       =   4.9523908919847E+19
(PID.TID 0000.0001) %MON vort_r_min                   =  -2.9263874305707E-05
(PID.TID 0000.0001) %MON vort_r_max                   =   1.5163770864649E-05
(PID.TID 0000.0001) %MON vort_a_mean                  =   6.7242814765326E-08
(PID.TID 0000.0001) %MON vort_a_sd                    =   8.3971289718481E-05
(PID.TID 0000.0001) %MON vort_p_mean                  =   6.8939459890378E-08
(PID.TID 0000.0001) %MON vort_p_sd                    =   9.2008267722672E-05
(PID.TID 0000.0001) %MON surfExpan_theta_mean         =   4.1197745874602E-02
(PID.TID 0000.0001) %MON surfExpan_salt_mean          =  -3.5996868841927E-04
(PID.TID 0000.0001) %MON surfExpan_Heat_mean          =  -3.6598466324707E+00
(PID.TID 0000.0001) %MON En_Budget_T2PE_mean          =   6.6024880286506E+00
(PID.TID 0000.0001) // =======================================================
(PID.TID 0000.0001) // End MONITOR dynamic field statistics
(PID.TID 0000.0001) // =======================================================
(PID.TID 0000.0001) // =======================================================
(PID.TID 0000.0001) // Begin MONITOR Land statistics
(PID.TID 0000.0001) // =======================================================
(PID.TID 0000.0001) %MON land_time_sec                =   7.6500000000000E+03
(PID.TID 0000.0001) %MON land_SnwH_ave_G              =   1.5323125311008E-01
(PID.TID 0000.0001) %MON land_SnwH_ave_S              =   5.5904746439002E-01
(PID.TID 0000.0001) %MON land_SnwH_ave_T              =   0.0000000000000E+00
(PID.TID 0000.0001) %MON land_SnwH_ave_N              =   1.2391027122087E-01
(PID.TID 0000.0001) %MON land_SnwH_max_S              =   9.9998969970448E-01
(PID.TID 0000.0001) %MON land_SnwH_max_T              =   0.0000000000000E+00
(PID.TID 0000.0001) %MON land_SnwH_max_N              =   9.9999858923850E-01
(PID.TID 0000.0001) %MON land_Tsrf_ave_G              =  -7.8368936136050E+00
(PID.TID 0000.0001) %MON land_Tsrf_ave_S              =  -6.6342041198171E+00
(PID.TID 0000.0001) %MON land_Tsrf_ave_T              =   1.1269757954922E+01
(PID.TID 0000.0001) %MON land_Tsrf_ave_N              =  -2.0985898757741E+01
(PID.TID 0000.0001) %MON land_Tsrf_min_S              =  -3.1559546851964E+01
(PID.TID 0000.0001) %MON land_Tsrf_min_T              =  -4.6695404351995E+00
(PID.TID 0000.0001) %MON land_Tsrf_min_N              =  -5.0011947345533E+01
(PID.TID 0000.0001) %MON land_Tsrf_max_S              =   2.1558472400008E+01
(PID.TID 0000.0001) %MON land_Tsrf_max_T              =   2.2383533287370E+01
(PID.TID 0000.0001) %MON land_Tsrf_max_N              =   9.7208190877400E+00
(PID.TID 0000.0001) %MON land_Tgr1_ave_G              =  -6.6699743796097E+00
(PID.TID 0000.0001) %MON land_Tgr1_ave_S              =  -6.8202232387638E+00
(PID.TID 0000.0001) %MON land_Tgr1_ave_T              =   1.1269757954922E+01
(PID.TID 0000.0001) %MON land_Tgr1_ave_N              =  -1.8600860219680E+01
(PID.TID 0000.0001) %MON land_Tgr1_min_S              =  -3.9165548041248E+01
(PID.TID 0000.0001) %MON land_Tgr1_min_T              =  -4.6695404351995E+00
(PID.TID 0000.0001) %MON land_Tgr1_min_N              =  -5.4767733622171E+01
(PID.TID 0000.0001) %MON land_Tgr1_max_S              =   2.1558472400008E+01
(PID.TID 0000.0001) %MON land_Tgr1_max_T              =   2.2383533287370E+01
(PID.TID 0000.0001) %MON land_Tgr1_max_N              =   9.7208190877400E+00
(PID.TID 0000.0001) %MON land_Tgr2_ave_G              =   4.2051113925504E+00
(PID.TID 0000.0001) %MON land_Tgr2_ave_S              =  -1.8728215815525E+01
(PID.TID 0000.0001) %MON land_Tgr2_ave_T              =   2.2010898270434E+01
(PID.TID 0000.0001) %MON land_Tgr2_ave_N              =  -2.4563781393240E-01
(PID.TID 0000.0001) %MON land_Tgr2_min_S              =  -6.4754935688895E+01
(PID.TID 0000.0001) %MON land_Tgr2_min_T              =  -9.7043292313393E+00
(PID.TID 0000.0001) %MON land_Tgr2_min_N              =  -4.0197688098694E+01
(PID.TID 0000.0001) %MON land_Tgr2_max_S              =   2.3360468322432E+01
(PID.TID 0000.0001) %MON land_Tgr2_max_T              =   3.1355131110376E+01
(PID.TID 0000.0001) %MON land_Tgr2_max_N              =   2.9825705786171E+01
(PID.TID 0000.0001) %MON land_TotEnerg_G              =  -6.3366572755998E+21
(PID.TID 0000.0001) %MON land_TotEnerg_S              =  -5.0012125321208E+21
(PID.TID 0000.0001) %MON land_TotEnerg_T              =   7.2862802936979E+21
(PID.TID 0000.0001) %MON land_TotEnerg_N              =  -8.6217250371769E+21
(PID.TID 0000.0001) %MON land_grdW_ave_G              =   4.8682533207113E-01
(PID.TID 0000.0001) %MON land_grdW_ave_S              =   3.0858955308612E-01
(PID.TID 0000.0001) %MON land_grdW_ave_T              =   5.6434788812222E-01
(PID.TID 0000.0001) %MON land_grdW_ave_N              =   4.9287664973460E-01
(PID.TID 0000.0001) %MON land_grdW_min_S              =   2.6824199306702E-02
(PID.TID 0000.0001) %MON land_grdW_min_T              =   0.0000000000000E+00
(PID.TID 0000.0001) %MON land_grdW_min_N              =   0.0000000000000E+00
(PID.TID 0000.0001) // =======================================================
(PID.TID 0000.0001) // End MONITOR Land statistics
(PID.TID 0000.0001) // =======================================================
(PID.TID 0000.0001) // =======================================================
(PID.TID 0000.0001) // Begin MONITOR Therm.SeaIce statistics
(PID.TID 0000.0001) // =======================================================
(PID.TID 0000.0001) %MON thSI_time_sec                =   7.6500000000000E+03
(PID.TID 0000.0001) %MON thSI_Ice_Area_G              =   1.9648248633275E+11
(PID.TID 0000.0001) %MON thSI_Ice_Area_S              =   0.0000000000000E+00
(PID.TID 0000.0001) %MON thSI_Ice_Area_N              =   1.9648248633275E+11
(PID.TID 0000.0001) %MON thSI_IceH_ave_G              =   1.2002060250069E-01
(PID.TID 0000.0001) %MON thSI_IceH_ave_S              =   0.0000000000000E+00
(PID.TID 0000.0001) %MON thSI_IceH_ave_N              =   1.2002060250069E-01
(PID.TID 0000.0001) %MON thSI_IceH_max_S              =   0.0000000000000E+00
(PID.TID 0000.0001) %MON thSI_IceH_max_N              =   1.4389589225452E-01
(PID.TID 0000.0001) %MON thSI_SnwH_ave_G              =   0.0000000000000E+00
(PID.TID 0000.0001) %MON thSI_SnwH_ave_S              =   0.0000000000000E+00
(PID.TID 0000.0001) %MON thSI_SnwH_ave_N              =   0.0000000000000E+00
(PID.TID 0000.0001) %MON thSI_SnwH_max_S              =   0.0000000000000E+00
(PID.TID 0000.0001) %MON thSI_SnwH_max_N              =   0.0000000000000E+00
(PID.TID 0000.0001) %MON thSI_Tsrf_ave_G              =  -7.6149978795082E+00
(PID.TID 0000.0001) %MON thSI_Tsrf_ave_S              =   0.0000000000000E+00
(PID.TID 0000.0001) %MON thSI_Tsrf_ave_N              =  -7.6149978795082E+00
(PID.TID 0000.0001) %MON thSI_Tsrf_min_S              =   0.0000000000000E+00
(PID.TID 0000.0001) %MON thSI_Tsrf_min_N              =  -8.2700494334555E+00
(PID.TID 0000.0001) %MON thSI_Tsrf_max_S              =   0.0000000000000E+00
(PID.TID 0000.0001) %MON thSI_Tsrf_max_N              =  -3.6108021572927E+00
(PID.TID 0000.0001) %MON thSI_Tic1_ave_G              =  -5.6146761579838E+00
(PID.TID 0000.0001) %MON thSI_Tic1_ave_S              =   0.0000000000000E+00
(PID.TID 0000.0001) %MON thSI_Tic1_ave_N              =  -5.6146761579838E+00
(PID.TID 0000.0001) %MON thSI_Tic1_min_S              =   0.0000000000000E+00
(PID.TID 0000.0001) %MON thSI_Tic1_min_N              =  -5.7682271341778E+00
(PID.TID 0000.0001) %MON thSI_Tic1_max_S              =   0.0000000000000E+00
(PID.TID 0000.0001) %MON thSI_Tic1_max_N              =  -3.1288537502660E+00
(PID.TID 0000.0001) %MON thSI_Tic2_ave_G              =  -2.7261523286151E+00
(PID.TID 0000.0001) %MON thSI_Tic2_ave_S              =   0.0000000000000E+00
(PID.TID 0000.0001) %MON thSI_Tic2_ave_N              =  -2.7261523286151E+00
(PID.TID 0000.0001) %MON thSI_Tic2_min_S              =   0.0000000000000E+00
(PID.TID 0000.0001) %MON thSI_Tic2_min_N              =  -2.8362653594583E+00
(PID.TID 0000.0001) %MON thSI_Tic2_max_S              =   0.0000000000000E+00
(PID.TID 0000.0001) %MON thSI_Tic2_max_N              =  -2.1647207428994E+00
(PID.TID 0000.0001) %MON thSI_TotEnerg_G              =  -7.2416802390849E+18
(PID.TID 0000.0001) // =======================================================
(PID.TID 0000.0001) // End MONITOR Therm.SeaIce statistics
(PID.TID 0000.0001) // =======================================================
 cg2d: Sum(rhs),rhsMax =  -1.16415321826935E-10  2.48840926705145E+04
(PID.TID 0000.0001)      cg2d_init_res =   1.17674294955728E+04
(PID.TID 0000.0001)      cg2d_iters(min,last) =      -1      16
(PID.TID 0000.0001)      cg2d_last_res =   9.20652833848757E-11
(PID.TID 0000.0001) // =======================================================
(PID.TID 0000.0001) // Begin MONITOR dynamic field statistics
(PID.TID 0000.0001) // =======================================================
(PID.TID 0000.0001) %MON time_tsnumber                =                    18
(PID.TID 0000.0001) %MON time_secondsf                =   8.1000000000000E+03
(PID.TID 0000.0001) %MON dynstat_eta_max              =   4.6178315783275E+03
(PID.TID 0000.0001) %MON dynstat_eta_min              =  -1.0026857076187E+03
(PID.TID 0000.0001) %MON dynstat_eta_mean             =  -2.6910144283201E-14
(PID.TID 0000.0001) %MON dynstat_eta_sd               =   5.3431451716827E+02
(PID.TID 0000.0001) %MON dynstat_eta_del2             =   4.4702418749413E+00
(PID.TID 0000.0001) %MON dynstat_uvel_max             =   7.3671027461998E+00
(PID.TID 0000.0001) %MON dynstat_uvel_min             =  -8.0133514397179E+00
(PID.TID 0000.0001) %MON dynstat_uvel_mean            =  -7.3664893829693E-03
(PID.TID 0000.0001) %MON dynstat_uvel_sd              =   8.0507639699688E-01
(PID.TID 0000.0001) %MON dynstat_uvel_del2            =   1.3776584604269E-03
(PID.TID 0000.0001) %MON dynstat_vvel_max             =   5.4640844010566E+00
(PID.TID 0000.0001) %MON dynstat_vvel_min             =  -7.0291875347307E+00
(PID.TID 0000.0001) %MON dynstat_vvel_mean            =   2.4914738854546E-02
(PID.TID 0000.0001) %MON dynstat_vvel_sd              =   7.9851395099256E-01
(PID.TID 0000.0001) %MON dynstat_vvel_del2            =   1.3319581559433E-03
(PID.TID 0000.0001) %MON dynstat_wvel_max             =   2.0578148913192E-01
(PID.TID 0000.0001) %MON dynstat_wvel_min             =  -2.2061952724303E-01
(PID.TID 0000.0001) %MON dynstat_wvel_mean            =  -2.8518926853955E-04
(PID.TID 0000.0001) %MON dynstat_wvel_sd              =   1.5401672102592E-02
(PID.TID 0000.0001) %MON dynstat_wvel_del2            =   1.5024003577268E-04
(PID.TID 0000.0001) %MON dynstat_theta_max            =   4.4107383264680E+02
(PID.TID 0000.0001) %MON dynstat_theta_min            =   2.8522358966896E+02
(PID.TID 0000.0001) %MON dynstat_theta_mean           =   3.3169880172905E+02
(PID.TID 0000.0001) %MON dynstat_theta_sd             =   4.7439057104876E+01
(PID.TID 0000.0001) %MON dynstat_theta_del2           =   2.2480230134641E-03
(PID.TID 0000.0001) %MON dynstat_salt_max             =   4.0268148631906E+00
(PID.TID 0000.0001) %MON dynstat_salt_min             =  -4.0154139026362E-03
(PID.TID 0000.0001) %MON dynstat_salt_mean            =   6.6516219956806E-02
(PID.TID 0000.0001) %MON dynstat_salt_sd              =   2.7127659800511E-01
(PID.TID 0000.0001) %MON dynstat_salt_del2            =   9.0329850243637E-04
(PID.TID 0000.0001) %MON trAdv_CFL_u_max              =   1.1218501767981E-02
(PID.TID 0000.0001) %MON trAdv_CFL_v_max              =   9.0207687868620E-03
(PID.TID 0000.0001) %MON trAdv_CFL_w_max              =   9.9389930069942E-03
(PID.TID 0000.0001) %MON advcfl_uvel_max              =   1.1255459896229E-02
(PID.TID 0000.0001) %MON advcfl_vvel_max              =   1.0083390471562E-02
(PID.TID 0000.0001) %MON advcfl_wvel_max              =   5.1605781089125E-03
(PID.TID 0000.0001) %MON advcfl_W_hf_max              =   9.9389930069942E-03
(PID.TID 0000.0001) %MON am_eta_mean                  =  -6.3718502489150E+09
(PID.TID 0000.0001) %MON am_uZo_mean                  =   6.2969064449653E+09
(PID.TID 0000.0001) %MON am_tot_mean                  =  -7.4943803949685E+07
(PID.TID 0000.0001) %MON pe_b_mean                    =  -8.3238582347361E-01
(PID.TID 0000.0001) %MON ke_max                       =   3.1645076900493E+01
(PID.TID 0000.0001) %MON ke_mean                      =   6.3942017193340E-01
(PID.TID 0000.0001) %MON ke_vol                       =   4.9523908919847E+19
(PID.TID 0000.0001) %MON vort_r_min                   =  -2.7935687858965E-05
(PID.TID 0000.0001) %MON vort_r_max                   =   1.5613264307365E-05
(PID.TID 0000.0001) %MON vort_a_mean                  =   6.7242814765336E-08
(PID.TID 0000.0001) %MON vort_a_sd                    =   8.3974125486012E-05
(PID.TID 0000.0001) %MON vort_p_mean                  =   6.8939460979397E-08
(PID.TID 0000.0001) %MON vort_p_sd                    =   9.2015593874282E-05
(PID.TID 0000.0001) %MON surfExpan_theta_mean         =   2.5621653480348E-02
(PID.TID 0000.0001) %MON surfExpan_salt_mean          =  -4.1756751198352E-04
(PID.TID 0000.0001) %MON surfExpan_Heat_mean          =  -2.3133021094014E+00
(PID.TID 0000.0001) %MON En_Budget_T2PE_mean          =   4.1163291769547E+00
(PID.TID 0000.0001) // =======================================================
(PID.TID 0000.0001) // End MONITOR dynamic field statistics
(PID.TID 0000.0001) // =======================================================
(PID.TID 0000.0001) // =======================================================
(PID.TID 0000.0001) // Begin MONITOR Land statistics
(PID.TID 0000.0001) // =======================================================
(PID.TID 0000.0001) %MON land_time_sec                =   8.1000000000000E+03
(PID.TID 0000.0001) %MON land_SnwH_ave_G              =   1.5323026645470E-01
(PID.TID 0000.0001) %MON land_SnwH_ave_S              =   5.5904650605435E-01
(PID.TID 0000.0001) %MON land_SnwH_ave_T              =   0.0000000000000E+00
(PID.TID 0000.0001) %MON land_SnwH_ave_N              =   1.2390861651930E-01
(PID.TID 0000.0001) %MON land_SnwH_max_S              =   9.9998899961676E-01
(PID.TID 0000.0001) %MON land_SnwH_max_T              =   0.0000000000000E+00
(PID.TID 0000.0001) %MON land_SnwH_max_N              =   9.9999850828605E-01
(PID.TID 0000.0001) %MON land_Tsrf_ave_G              =  -7.9166535052670E+00
(PID.TID 0000.0001) %MON land_Tsrf_ave_S              =  -6.6827802787814E+00
(PID.TID 0000.0001) %MON land_Tsrf_ave_T              =   1.1098889387545E+01
(PID.TID 0000.0001) %MON land_Tsrf_ave_N              =  -2.1014934768103E+01
(PID.TID 0000.0001) %MON land_Tsrf_min_S              =  -3.1566502754619E+01
(PID.TID 0000.0001) %MON land_Tsrf_min_T              =  -4.5270559453540E+00
(PID.TID 0000.0001) %MON land_Tsrf_min_N              =  -5.0020228993830E+01
(PID.TID 0000.0001) %MON land_Tsrf_max_S              =   2.1342651063336E+01
(PID.TID 0000.0001) %MON land_Tsrf_max_T              =   2.2064033498583E+01
(PID.TID 0000.0001) %MON land_Tsrf_max_N              =   9.5334140768368E+00
(PID.TID 0000.0001) %MON land_Tgr1_ave_G              =  -6.7552843556131E+00
(PID.TID 0000.0001) %MON land_Tgr1_ave_S              =  -6.8825852158954E+00
(PID.TID 0000.0001) %MON land_Tgr1_ave_T              =   1.1098889387545E+01
(PID.TID 0000.0001) %MON land_Tgr1_ave_N              =  -1.8636480875609E+01
(PID.TID 0000.0001) %MON land_Tgr1_min_S              =  -3.9174590791192E+01
(PID.TID 0000.0001) %MON land_Tgr1_min_T              =  -4.5270559453540E+00
(PID.TID 0000.0001) %MON land_Tgr1_min_N              =  -5.4753174084598E+01
(PID.TID 0000.0001) %MON land_Tgr1_max_S              =   2.1342651063336E+01
(PID.TID 0000.0001) %MON land_Tgr1_max_T              =   2.2064033498583E+01
(PID.TID 0000.0001) %MON land_Tgr1_max_N              =   9.5334140768368E+00
(PID.TID 0000.0001) %MON land_Tgr2_ave_G              =   4.2049433340894E+00
(PID.TID 0000.0001) %MON land_Tgr2_ave_S              =  -1.8728017532068E+01
(PID.TID 0000.0001) %MON land_Tgr2_ave_T              =   2.2010720762092E+01
(PID.TID 0000.0001) %MON land_Tgr2_ave_N              =  -2.4591840112687E-01
(PID.TID 0000.0001) %MON land_Tgr2_min_S              =  -6.4754504399097E+01
(PID.TID 0000.0001) %MON land_Tgr2_min_T              =  -9.7042638150591E+00
(PID.TID 0000.0001) %MON land_Tgr2_min_N              =  -4.0197925105206E+01
(PID.TID 0000.0001) %MON land_Tgr2_max_S              =   2.3360423202324E+01
(PID.TID 0000.0001) %MON land_Tgr2_max_T              =   3.1354724643395E+01
(PID.TID 0000.0001) %MON land_Tgr2_max_N              =   2.9825218707461E+01
(PID.TID 0000.0001) %MON land_TotEnerg_G              =  -6.3390342248678E+21
(PID.TID 0000.0001) %MON land_TotEnerg_S              =  -5.0014057076341E+21
(PID.TID 0000.0001) %MON land_TotEnerg_T              =   7.2847945641907E+21
(PID.TID 0000.0001) %MON land_TotEnerg_N              =  -8.6224230814245E+21
(PID.TID 0000.0001) %MON land_grdW_ave_G              =   4.8681633286920E-01
(PID.TID 0000.0001) %MON land_grdW_ave_S              =   3.0858104183235E-01
(PID.TID 0000.0001) %MON land_grdW_ave_T              =   5.6432563947805E-01
(PID.TID 0000.0001) %MON land_grdW_ave_N              =   4.9287633983312E-01
(PID.TID 0000.0001) %MON land_grdW_min_S              =   2.6907762413360E-02
(PID.TID 0000.0001) %MON land_grdW_min_T              =   0.0000000000000E+00
(PID.TID 0000.0001) %MON land_grdW_min_N              =   0.0000000000000E+00
(PID.TID 0000.0001) // =======================================================
(PID.TID 0000.0001) // End MONITOR Land statistics
(PID.TID 0000.0001) // =======================================================
(PID.TID 0000.0001) // =======================================================
(PID.TID 0000.0001) // Begin MONITOR Therm.SeaIce statistics
(PID.TID 0000.0001) // =======================================================
(PID.TID 0000.0001) %MON thSI_time_sec                =   8.1000000000000E+03
(PID.TID 0000.0001) %MON thSI_Ice_Area_G              =   1.9925039351919E+11
(PID.TID 0000.0001) %MON thSI_Ice_Area_S              =   0.0000000000000E+00
(PID.TID 0000.0001) %MON thSI_Ice_Area_N              =   1.9925039351919E+11
(PID.TID 0000.0001) %MON thSI_IceH_ave_G              =   1.1964392664581E-01
(PID.TID 0000.0001) %MON thSI_IceH_ave_S              =   0.0000000000000E+00
(PID.TID 0000.0001) %MON thSI_IceH_ave_N              =   1.1964392664581E-01
(PID.TID 0000.0001) %MON thSI_IceH_max_S              =   0.0000000000000E+00
(PID.TID 0000.0001) %MON thSI_IceH_max_N              =   1.4422463177325E-01
(PID.TID 0000.0001) %MON thSI_SnwH_ave_G              =   0.0000000000000E+00
(PID.TID 0000.0001) %MON thSI_SnwH_ave_S              =   0.0000000000000E+00
(PID.TID 0000.0001) %MON thSI_SnwH_ave_N              =   0.0000000000000E+00
(PID.TID 0000.0001) %MON thSI_SnwH_max_S              =   0.0000000000000E+00
(PID.TID 0000.0001) %MON thSI_SnwH_max_N              =   0.0000000000000E+00
(PID.TID 0000.0001) %MON thSI_Tsrf_ave_G              =  -7.7009175420872E+00
(PID.TID 0000.0001) %MON thSI_Tsrf_ave_S              =   0.0000000000000E+00
(PID.TID 0000.0001) %MON thSI_Tsrf_ave_N              =  -7.7009175420872E+00
(PID.TID 0000.0001) %MON thSI_Tsrf_min_S              =   0.0000000000000E+00
(PID.TID 0000.0001) %MON thSI_Tsrf_min_N              =  -8.4026798884261E+00
(PID.TID 0000.0001) %MON thSI_Tsrf_max_S              =   0.0000000000000E+00
(PID.TID 0000.0001) %MON thSI_Tsrf_max_N              =  -3.6431375280567E+00
(PID.TID 0000.0001) %MON thSI_Tic1_ave_G              =  -5.7598900177405E+00
(PID.TID 0000.0001) %MON thSI_Tic1_ave_S              =   0.0000000000000E+00
(PID.TID 0000.0001) %MON thSI_Tic1_ave_N              =  -5.7598900177405E+00
(PID.TID 0000.0001) %MON thSI_Tic1_min_S              =   0.0000000000000E+00
(PID.TID 0000.0001) %MON thSI_Tic1_min_N              =  -5.9181153700760E+00
(PID.TID 0000.0001) %MON thSI_Tic1_max_S              =   0.0000000000000E+00
(PID.TID 0000.0001) %MON thSI_Tic1_max_N              =  -3.1525952547794E+00
(PID.TID 0000.0001) %MON thSI_Tic2_ave_G              =  -2.7941158080196E+00
(PID.TID 0000.0001) %MON thSI_Tic2_ave_S              =   0.0000000000000E+00
(PID.TID 0000.0001) %MON thSI_Tic2_ave_N              =  -2.7941158080196E+00
(PID.TID 0000.0001) %MON thSI_Tic2_min_S              =   0.0000000000000E+00
(PID.TID 0000.0001) %MON thSI_Tic2_min_N              =  -2.9038737472583E+00
(PID.TID 0000.0001) %MON thSI_Tic2_max_S              =   0.0000000000000E+00
(PID.TID 0000.0001) %MON thSI_Tic2_max_N              =  -2.1719416037799E+00
(PID.TID 0000.0001) %MON thSI_TotEnerg_G              =  -7.3262785985150E+18
(PID.TID 0000.0001) // =======================================================
(PID.TID 0000.0001) // End MONITOR Therm.SeaIce statistics
(PID.TID 0000.0001) // =======================================================
 cg2d: Sum(rhs),rhsMax =  -8.00355337560177E-10  2.48011849743074E+04
(PID.TID 0000.0001)      cg2d_init_res =   1.15958129143696E+04
(PID.TID 0000.0001)      cg2d_iters(min,last) =      -1      16
(PID.TID 0000.0001)      cg2d_last_res =   8.86682095149473E-11
(PID.TID 0000.0001) // =======================================================
(PID.TID 0000.0001) // Begin MONITOR dynamic field statistics
(PID.TID 0000.0001) // =======================================================
(PID.TID 0000.0001) %MON time_tsnumber                =                    19
(PID.TID 0000.0001) %MON time_secondsf                =   8.5500000000000E+03
(PID.TID 0000.0001) %MON dynstat_eta_max              =   4.5840093554395E+03
(PID.TID 0000.0001) %MON dynstat_eta_min              =  -9.8838933889141E+02
(PID.TID 0000.0001) %MON dynstat_eta_mean             =  -1.5262469891965E-14
(PID.TID 0000.0001) %MON dynstat_eta_sd               =   5.3406104728108E+02
(PID.TID 0000.0001) %MON dynstat_eta_del2             =   4.4361350233678E+00
(PID.TID 0000.0001) %MON dynstat_uvel_max             =   7.6430415991164E+00
(PID.TID 0000.0001) %MON dynstat_uvel_min             =  -7.4352362201496E+00
(PID.TID 0000.0001) %MON dynstat_uvel_mean            =  -5.9268311666932E-03
(PID.TID 0000.0001) %MON dynstat_uvel_sd              =   8.1208183214420E-01
(PID.TID 0000.0001) %MON dynstat_uvel_del2            =   1.3806617556767E-03
(PID.TID 0000.0001) %MON dynstat_vvel_max             =   5.5362773575957E+00
(PID.TID 0000.0001) %MON dynstat_vvel_min             =  -6.4435707210255E+00
(PID.TID 0000.0001) %MON dynstat_vvel_mean            =   2.5591560381645E-02
(PID.TID 0000.0001) %MON dynstat_vvel_sd              =   7.9896382253037E-01
(PID.TID 0000.0001) %MON dynstat_vvel_del2            =   1.3472889148361E-03
(PID.TID 0000.0001) %MON dynstat_wvel_max             =   2.0048794038384E-01
(PID.TID 0000.0001) %MON dynstat_wvel_min             =  -2.2391088373638E-01
(PID.TID 0000.0001) %MON dynstat_wvel_mean            =  -1.2918630346384E-04
(PID.TID 0000.0001) %MON dynstat_wvel_sd              =   1.5350790820816E-02
(PID.TID 0000.0001) %MON dynstat_wvel_del2            =   1.5116327310173E-04
(PID.TID 0000.0001) %MON dynstat_theta_max            =   4.4107991934124E+02
(PID.TID 0000.0001) %MON dynstat_theta_min            =   2.8499504351831E+02
(PID.TID 0000.0001) %MON dynstat_theta_mean           =   3.3169702610116E+02
(PID.TID 0000.0001) %MON dynstat_theta_sd             =   4.7440998624364E+01
(PID.TID 0000.0001) %MON dynstat_theta_del2           =   2.2278118253701E-03
(PID.TID 0000.0001) %MON dynstat_salt_max             =   4.1106323738491E+00
(PID.TID 0000.0001) %MON dynstat_salt_min             =  -4.4353150190139E-03
(PID.TID 0000.0001) %MON dynstat_salt_mean            =   6.9978020678383E-02
(PID.TID 0000.0001) %MON dynstat_salt_sd              =   2.8407815272445E-01
(PID.TID 0000.0001) %MON dynstat_salt_del2            =   9.3134809513870E-04
(PID.TID 0000.0001) %MON trAdv_CFL_u_max              =   1.0794366799065E-02
(PID.TID 0000.0001) %MON trAdv_CFL_v_max              =   9.1920140698460E-03
(PID.TID 0000.0001) %MON trAdv_CFL_w_max              =   9.5391191779418E-03
(PID.TID 0000.0001) %MON advcfl_uvel_max              =   1.0893981988720E-02
(PID.TID 0000.0001) %MON advcfl_vvel_max              =   9.2433214066632E-03
(PID.TID 0000.0001) %MON advcfl_wvel_max              =   5.1568860432208E-03
(PID.TID 0000.0001) %MON advcfl_W_hf_max              =   9.5391191779418E-03
(PID.TID 0000.0001) %MON am_eta_mean                  =  -7.0121770645089E+09
(PID.TID 0000.0001) %MON am_uZo_mean                  =   6.9280874934209E+09
(PID.TID 0000.0001) %MON am_tot_mean                  =  -8.4089571088025E+07
(PID.TID 0000.0001) %MON pe_b_mean                    =  -8.4393369539838E-01
(PID.TID 0000.0001) %MON ke_max                       =   3.1163731861745E+01
(PID.TID 0000.0001) %MON ke_mean                      =   6.4541398281944E-01
(PID.TID 0000.0001) %MON ke_vol                       =   4.9523908919847E+19
(PID.TID 0000.0001) %MON vort_r_min                   =  -2.6601714037894E-05
(PID.TID 0000.0001) %MON vort_r_max                   =   1.6034883329668E-05
(PID.TID 0000.0001) %MON vort_a_mean                  =   6.7242814765331E-08
(PID.TID 0000.0001) %MON vort_a_sd                    =   8.3976958306495E-05
(PID.TID 0000.0001) %MON vort_p_mean                  =   6.8939461892137E-08
(PID.TID 0000.0001) %MON vort_p_sd                    =   9.2019605884912E-05
(PID.TID 0000.0001) %MON surfExpan_theta_mean         =   1.0897097307307E-02
(PID.TID 0000.0001) %MON surfExpan_salt_mean          =  -4.8222183022534E-04
(PID.TID 0000.0001) %MON surfExpan_Heat_mean          =  -1.0128492147378E+00
(PID.TID 0000.0001) %MON En_Budget_T2PE_mean          =   1.7357060288388E+00
(PID.TID 0000.0001) // =======================================================
(PID.TID 0000.0001) // End MONITOR dynamic field statistics
(PID.TID 0000.0001) // =======================================================
(PID.TID 0000.0001) // =======================================================
(PID.TID 0000.0001) // Begin MONITOR Land statistics
(PID.TID 0000.0001) // =======================================================
(PID.TID 0000.0001) %MON land_time_sec                =   8.5500000000000E+03
(PID.TID 0000.0001) %MON land_SnwH_ave_G              =   1.5322928289258E-01
(PID.TID 0000.0001) %MON land_SnwH_ave_S              =   5.5904555071112E-01
(PID.TID 0000.0001) %MON land_SnwH_ave_T              =   0.0000000000000E+00
(PID.TID 0000.0001) %MON land_SnwH_ave_N              =   1.2390696700928E-01
(PID.TID 0000.0001) %MON land_SnwH_max_S              =   9.9998830446108E-01
(PID.TID 0000.0001) %MON land_SnwH_max_T              =   0.0000000000000E+00
(PID.TID 0000.0001) %MON land_SnwH_max_N              =   9.9999842748027E-01
(PID.TID 0000.0001) %MON land_Tsrf_ave_G              =  -7.9883589333476E+00
(PID.TID 0000.0001) %MON land_Tsrf_ave_S              =  -6.7195951938539E+00
(PID.TID 0000.0001) %MON land_Tsrf_ave_T              =   1.0944240610212E+01
(PID.TID 0000.0001) %MON land_Tsrf_ave_N              =  -2.1042571336703E+01
(PID.TID 0000.0001) %MON land_Tsrf_min_S              =  -3.1593522219098E+01
(PID.TID 0000.0001) %MON land_Tsrf_min_T              =  -4.3891794124224E+00
(PID.TID 0000.0001) %MON land_Tsrf_min_N              =  -5.0028721848174E+01
(PID.TID 0000.0001) %MON land_Tsrf_max_S              =   2.1150433732476E+01
(PID.TID 0000.0001) %MON land_Tsrf_max_T              =   2.1775424294972E+01
(PID.TID 0000.0001) %MON land_Tsrf_max_N              =   9.3555845476708E+00
(PID.TID 0000.0001) %MON land_Tgr1_ave_G              =  -6.8331635247338E+00
(PID.TID 0000.0001) %MON land_Tgr1_ave_S              =  -6.9379358414452E+00
(PID.TID 0000.0001) %MON land_Tgr1_ave_T              =   1.0944240610212E+01
(PID.TID 0000.0001) %MON land_Tgr1_ave_N              =  -1.8670403680387E+01
(PID.TID 0000.0001) %MON land_Tgr1_min_S              =  -3.9183672652634E+01
(PID.TID 0000.0001) %MON land_Tgr1_min_T              =  -4.3891794124224E+00
(PID.TID 0000.0001) %MON land_Tgr1_min_N              =  -5.4738646839220E+01
(PID.TID 0000.0001) %MON land_Tgr1_max_S              =   2.1150433732476E+01
(PID.TID 0000.0001) %MON land_Tgr1_max_T              =   2.1775424294972E+01
(PID.TID 0000.0001) %MON land_Tgr1_max_N              =   9.3555845476708E+00
(PID.TID 0000.0001) %MON land_Tgr2_ave_G              =   4.2047740629482E+00
(PID.TID 0000.0001) %MON land_Tgr2_ave_S              =  -1.8727820127323E+01
(PID.TID 0000.0001) %MON land_Tgr2_ave_T              =   2.2010540910025E+01
(PID.TID 0000.0001) %MON land_Tgr2_ave_N              =  -2.4619955406032E-01
(PID.TID 0000.0001) %MON land_Tgr2_min_S              =  -6.4754073285489E+01
(PID.TID 0000.0001) %MON land_Tgr2_min_T              =  -9.7041966576695E+00
(PID.TID 0000.0001) %MON land_Tgr2_min_N              =  -4.0198161862213E+01
(PID.TID 0000.0001) %MON land_Tgr2_max_S              =   2.3360374469084E+01
(PID.TID 0000.0001) %MON land_Tgr2_max_T              =   3.1354314024219E+01
(PID.TID 0000.0001) %MON land_Tgr2_max_N              =   2.9824725328397E+01
(PID.TID 0000.0001) %MON land_TotEnerg_G              =  -6.3412329547946E+21
(PID.TID 0000.0001) %MON land_TotEnerg_S              =  -5.0015745790319E+21
(PID.TID 0000.0001) %MON land_TotEnerg_T              =   7.2834470705308E+21
(PID.TID 0000.0001) %MON land_TotEnerg_N              =  -8.6231054462934E+21
(PID.TID 0000.0001) %MON land_grdW_ave_G              =   4.8680757640496E-01
(PID.TID 0000.0001) %MON land_grdW_ave_S              =   3.0857267306141E-01
(PID.TID 0000.0001) %MON land_grdW_ave_T              =   5.6430404019523E-01
(PID.TID 0000.0001) %MON land_grdW_ave_N              =   4.9287603366010E-01
(PID.TID 0000.0001) %MON land_grdW_min_S              =   2.6992362286598E-02
(PID.TID 0000.0001) %MON land_grdW_min_T              =   0.0000000000000E+00
(PID.TID 0000.0001) %MON land_grdW_min_N              =   0.0000000000000E+00
(PID.TID 0000.0001) // =======================================================
(PID.TID 0000.0001) // End MONITOR Land statistics
(PID.TID 0000.0001) // =======================================================
(PID.TID 0000.0001) // =======================================================
(PID.TID 0000.0001) // Begin MONITOR Therm.SeaIce statistics
(PID.TID 0000.0001) // =======================================================
(PID.TID 0000.0001) %MON thSI_time_sec                =   8.5500000000000E+03
(PID.TID 0000.0001) %MON thSI_Ice_Area_G              =   2.0195870150814E+11
(PID.TID 0000.0001) %MON thSI_Ice_Area_S              =   0.0000000000000E+00
(PID.TID 0000.0001) %MON thSI_Ice_Area_N              =   2.0195870150814E+11
(PID.TID 0000.0001) %MON thSI_IceH_ave_G              =   1.1931937156857E-01
(PID.TID 0000.0001) %MON thSI_IceH_ave_S              =   0.0000000000000E+00
(PID.TID 0000.0001) %MON thSI_IceH_ave_N              =   1.1931937156857E-01
(PID.TID 0000.0001) %MON thSI_IceH_max_S              =   0.0000000000000E+00
(PID.TID 0000.0001) %MON thSI_IceH_max_N              =   1.4455872569516E-01
(PID.TID 0000.0001) %MON thSI_SnwH_ave_G              =   0.0000000000000E+00
(PID.TID 0000.0001) %MON thSI_SnwH_ave_S              =   0.0000000000000E+00
(PID.TID 0000.0001) %MON thSI_SnwH_ave_N              =   0.0000000000000E+00
(PID.TID 0000.0001) %MON thSI_SnwH_max_S              =   0.0000000000000E+00
(PID.TID 0000.0001) %MON thSI_SnwH_max_N              =   0.0000000000000E+00
(PID.TID 0000.0001) %MON thSI_Tsrf_ave_G              =  -7.7792982401059E+00
(PID.TID 0000.0001) %MON thSI_Tsrf_ave_S              =   0.0000000000000E+00
(PID.TID 0000.0001) %MON thSI_Tsrf_ave_N              =  -7.7792982401059E+00
(PID.TID 0000.0001) %MON thSI_Tsrf_min_S              =   0.0000000000000E+00
(PID.TID 0000.0001) %MON thSI_Tsrf_min_N              =  -8.5270250014954E+00
(PID.TID 0000.0001) %MON thSI_Tsrf_max_S              =   0.0000000000000E+00
(PID.TID 0000.0001) %MON thSI_Tsrf_max_N              =  -3.6754006850503E+00
(PID.TID 0000.0001) %MON thSI_Tic1_ave_G              =  -5.8946484293980E+00
(PID.TID 0000.0001) %MON thSI_Tic1_ave_S              =   0.0000000000000E+00
(PID.TID 0000.0001) %MON thSI_Tic1_ave_N              =  -5.8946484293980E+00
(PID.TID 0000.0001) %MON thSI_Tic1_min_S              =   0.0000000000000E+00
(PID.TID 0000.0001) %MON thSI_Tic1_min_N              =  -6.0568971589601E+00
(PID.TID 0000.0001) %MON thSI_Tic1_max_S              =   0.0000000000000E+00
(PID.TID 0000.0001) %MON thSI_Tic1_max_N              =  -3.1765105240657E+00
(PID.TID 0000.0001) %MON thSI_Tic2_ave_G              =  -2.8558769506436E+00
(PID.TID 0000.0001) %MON thSI_Tic2_ave_S              =   0.0000000000000E+00
(PID.TID 0000.0001) %MON thSI_Tic2_ave_N              =  -2.8558769506436E+00
(PID.TID 0000.0001) %MON thSI_Tic2_min_S              =   0.0000000000000E+00
(PID.TID 0000.0001) %MON thSI_Tic2_min_N              =  -2.9650879427925E+00
(PID.TID 0000.0001) %MON thSI_Tic2_max_S              =   0.0000000000000E+00
(PID.TID 0000.0001) %MON thSI_Tic2_max_N              =  -2.1797573714186E+00
(PID.TID 0000.0001) %MON thSI_TotEnerg_G              =  -7.4109273200142E+18
(PID.TID 0000.0001) // =======================================================
(PID.TID 0000.0001) // End MONITOR Therm.SeaIce statistics
(PID.TID 0000.0001) // =======================================================
 cg2d: Sum(rhs),rhsMax =  -3.63797880709171E-10  2.45126165263111E+04
(PID.TID 0000.0001)      cg2d_init_res =   1.14501480216595E+04
(PID.TID 0000.0001)      cg2d_iters(min,last) =      -1      16
(PID.TID 0000.0001)      cg2d_last_res =   8.29426996003065E-11
(PID.TID 0000.0001) // =======================================================
(PID.TID 0000.0001) // Begin MONITOR dynamic field statistics
(PID.TID 0000.0001) // =======================================================
(PID.TID 0000.0001) %MON time_tsnumber                =                    20
(PID.TID 0000.0001) %MON time_secondsf                =   9.0000000000000E+03
(PID.TID 0000.0001) %MON dynstat_eta_max              =   4.4889168153973E+03
(PID.TID 0000.0001) %MON dynstat_eta_min              =  -9.4132975182085E+02
(PID.TID 0000.0001) %MON dynstat_eta_mean             =   7.2295910014570E-15
(PID.TID 0000.0001) %MON dynstat_eta_sd               =   5.3148041575315E+02
(PID.TID 0000.0001) %MON dynstat_eta_del2             =   4.4017429263500E+00
(PID.TID 0000.0001) %MON dynstat_uvel_max             =   7.6633463999521E+00
(PID.TID 0000.0001) %MON dynstat_uvel_min             =  -6.7473332505462E+00
(PID.TID 0000.0001) %MON dynstat_uvel_mean            =  -3.9395631281125E-03
(PID.TID 0000.0001) %MON dynstat_uvel_sd              =   8.1772149821371E-01
(PID.TID 0000.0001) %MON dynstat_uvel_del2            =   1.3800453818375E-03
(PID.TID 0000.0001) %MON dynstat_vvel_max             =   6.0506355413030E+00
(PID.TID 0000.0001) %MON dynstat_vvel_min             =  -6.5166968844467E+00
(PID.TID 0000.0001) %MON dynstat_vvel_mean            =   2.5982104421622E-02
(PID.TID 0000.0001) %MON dynstat_vvel_sd              =   8.0175641439359E-01
(PID.TID 0000.0001) %MON dynstat_vvel_del2            =   1.3653019343304E-03
(PID.TID 0000.0001) %MON dynstat_wvel_max             =   1.9234957890988E-01
(PID.TID 0000.0001) %MON dynstat_wvel_min             =  -2.2117527933865E-01
(PID.TID 0000.0001) %MON dynstat_wvel_mean            =   1.6357087996668E-05
(PID.TID 0000.0001) %MON dynstat_wvel_sd              =   1.5345623362885E-02
(PID.TID 0000.0001) %MON dynstat_wvel_del2            =   1.5131506150718E-04
(PID.TID 0000.0001) %MON dynstat_theta_max            =   4.4103591593234E+02
(PID.TID 0000.0001) %MON dynstat_theta_min            =   2.8476811760737E+02
(PID.TID 0000.0001) %MON dynstat_theta_mean           =   3.3169520784750E+02
(PID.TID 0000.0001) %MON dynstat_theta_sd             =   4.7442957220409E+01
(PID.TID 0000.0001) %MON dynstat_theta_del2           =   2.2159205656647E-03
(PID.TID 0000.0001) %MON dynstat_salt_max             =   4.1882982873773E+00
(PID.TID 0000.0001) %MON dynstat_salt_min             =  -3.0447284467162E-03
(PID.TID 0000.0001) %MON dynstat_salt_mean            =   7.3424501407244E-02
(PID.TID 0000.0001) %MON dynstat_salt_sd              =   2.9673897265028E-01
(PID.TID 0000.0001) %MON dynstat_salt_del2            =   9.5896303481428E-04
(PID.TID 0000.0001) %MON trAdv_CFL_u_max              =   1.0827715752445E-02
(PID.TID 0000.0001) %MON trAdv_CFL_v_max              =   9.3286143895862E-03
(PID.TID 0000.0001) %MON trAdv_CFL_w_max              =   9.1981671716409E-03
(PID.TID 0000.0001) %MON advcfl_uvel_max              =   1.0922923363920E-02
(PID.TID 0000.0001) %MON advcfl_vvel_max              =   9.2800304588188E-03
(PID.TID 0000.0001) %MON advcfl_wvel_max              =   5.3813346685016E-03
(PID.TID 0000.0001) %MON advcfl_W_hf_max              =   9.1981671716409E-03
(PID.TID 0000.0001) %MON am_eta_mean                  =  -7.6634695888070E+09
(PID.TID 0000.0001) %MON am_uZo_mean                  =   7.5702513522829E+09
(PID.TID 0000.0001) %MON am_tot_mean                  =  -9.3218236524100E+07
(PID.TID 0000.0001) %MON pe_b_mean                    =  -8.5686826529535E-01
(PID.TID 0000.0001) %MON ke_max                       =   3.0973375614374E+01
(PID.TID 0000.0001) %MON ke_mean                      =   6.5220310653337E-01
(PID.TID 0000.0001) %MON ke_vol                       =   4.9523908919847E+19
(PID.TID 0000.0001) %MON vort_r_min                   =  -2.5361625547493E-05
(PID.TID 0000.0001) %MON vort_r_max                   =   1.6433756537299E-05
(PID.TID 0000.0001) %MON vort_a_mean                  =   6.7242814765224E-08
(PID.TID 0000.0001) %MON vort_a_sd                    =   8.3979775779604E-05
(PID.TID 0000.0001) %MON vort_p_mean                  =   6.8939462675512E-08
(PID.TID 0000.0001) %MON vort_p_sd                    =   9.2020547738803E-05
(PID.TID 0000.0001) %MON surfExpan_theta_mean         =  -2.6632704810136E-03
(PID.TID 0000.0001) %MON surfExpan_salt_mean          =  -5.5402776148525E-04
(PID.TID 0000.0001) %MON surfExpan_Heat_mean          =   2.0521189693826E-01
(PID.TID 0000.0001) %MON En_Budget_T2PE_mean          =  -4.7919538825903E-01
(PID.TID 0000.0001) // =======================================================
(PID.TID 0000.0001) // End MONITOR dynamic field statistics
(PID.TID 0000.0001) // =======================================================
(PID.TID 0000.0001) // =======================================================
(PID.TID 0000.0001) // Begin MONITOR Land statistics
(PID.TID 0000.0001) // =======================================================
(PID.TID 0000.0001) %MON land_time_sec                =   9.0000000000000E+03
(PID.TID 0000.0001) %MON land_SnwH_ave_G              =   1.5322830205339E-01
(PID.TID 0000.0001) %MON land_SnwH_ave_S              =   5.5904459663126E-01
(PID.TID 0000.0001) %MON land_SnwH_ave_T              =   0.0000000000000E+00
(PID.TID 0000.0001) %MON land_SnwH_ave_N              =   1.2390532251397E-01
(PID.TID 0000.0001) %MON land_SnwH_max_S              =   9.9998761512027E-01
(PID.TID 0000.0001) %MON land_SnwH_max_T              =   0.0000000000000E+00
(PID.TID 0000.0001) %MON land_SnwH_max_N              =   9.9999834677703E-01
(PID.TID 0000.0001) %MON land_Tsrf_ave_G              =  -8.0529248803469E+00
(PID.TID 0000.0001) %MON land_Tsrf_ave_S              =  -6.7471732455508E+00
(PID.TID 0000.0001) %MON land_Tsrf_ave_T              =   1.0804299838025E+01
(PID.TID 0000.0001) %MON land_Tsrf_ave_N              =  -2.1068802840043E+01
(PID.TID 0000.0001) %MON land_Tsrf_min_S              =  -3.1633702013333E+01
(PID.TID 0000.0001) %MON land_Tsrf_min_T              =  -4.2557458774612E+00
(PID.TID 0000.0001) %MON land_Tsrf_min_N              =  -5.0035359267095E+01
(PID.TID 0000.0001) %MON land_Tsrf_max_S              =   2.0979369099411E+01
(PID.TID 0000.0001) %MON land_Tsrf_max_T              =   2.1514975553067E+01
(PID.TID 0000.0001) %MON land_Tsrf_max_N              =   9.1870560023909E+00
(PID.TID 0000.0001) %MON land_Tgr1_ave_G              =  -6.9042789791936E+00
(PID.TID 0000.0001) %MON land_Tgr1_ave_S              =  -6.9868687132946E+00
(PID.TID 0000.0001) %MON land_Tgr1_ave_T              =   1.0804299838025E+01
(PID.TID 0000.0001) %MON land_Tgr1_ave_N              =  -1.8702755506425E+01
(PID.TID 0000.0001) %MON land_Tgr1_min_S              =  -3.9192817809818E+01
(PID.TID 0000.0001) %MON land_Tgr1_min_T              =  -4.2557458774612E+00
(PID.TID 0000.0001) %MON land_Tgr1_min_N              =  -5.4724150026333E+01
(PID.TID 0000.0001) %MON land_Tgr1_max_S              =   2.0979369099411E+01
(PID.TID 0000.0001) %MON land_Tgr1_max_T              =   2.1514975553067E+01
(PID.TID 0000.0001) %MON land_Tgr1_max_N              =   9.1870560023909E+00
(PID.TID 0000.0001) %MON land_Tgr2_ave_G              =   4.2046036904909E+00
(PID.TID 0000.0001) %MON land_Tgr2_ave_S              =  -1.8727623499795E+01
(PID.TID 0000.0001) %MON land_Tgr2_ave_T              =   2.2010358950359E+01
(PID.TID 0000.0001) %MON land_Tgr2_ave_N              =  -2.4648124147932E-01
(PID.TID 0000.0001) %MON land_Tgr2_min_S              =  -6.4753642348437E+01
(PID.TID 0000.0001) %MON land_Tgr2_min_T              =  -9.7041278153458E+00
(PID.TID 0000.0001) %MON land_Tgr2_min_N              =  -4.0198398370556E+01
(PID.TID 0000.0001) %MON land_Tgr2_max_S              =   2.3360322481928E+01
(PID.TID 0000.0001) %MON land_Tgr2_max_T              =   3.1353899516904E+01
(PID.TID 0000.0001) %MON land_Tgr2_max_N              =   2.9824225879963E+01
(PID.TID 0000.0001) %MON land_TotEnerg_G              =  -6.3432712333362E+21
(PID.TID 0000.0001) %MON land_TotEnerg_S              =  -5.0017213579745E+21
(PID.TID 0000.0001) %MON land_TotEnerg_T              =   7.2822229246121E+21
(PID.TID 0000.0001) %MON land_TotEnerg_N              =  -8.6237727999739E+21
(PID.TID 0000.0001) %MON land_grdW_ave_G              =   4.8679903819896E-01
(PID.TID 0000.0001) %MON land_grdW_ave_S              =   3.0856443832565E-01
(PID.TID 0000.0001) %MON land_grdW_ave_T              =   5.6428302195021E-01
(PID.TID 0000.0001) %MON land_grdW_ave_N              =   4.9287573081322E-01
(PID.TID 0000.0001) %MON land_grdW_min_S              =   2.7077802543910E-02
(PID.TID 0000.0001) %MON land_grdW_min_T              =   0.0000000000000E+00
(PID.TID 0000.0001) %MON land_grdW_min_N              =   0.0000000000000E+00
(PID.TID 0000.0001) // =======================================================
(PID.TID 0000.0001) // End MONITOR Land statistics
(PID.TID 0000.0001) // =======================================================
(PID.TID 0000.0001) // =======================================================
(PID.TID 0000.0001) // Begin MONITOR Therm.SeaIce statistics
(PID.TID 0000.0001) // =======================================================
(PID.TID 0000.0001) %MON thSI_time_sec                =   9.0000000000000E+03
(PID.TID 0000.0001) %MON thSI_Ice_Area_G              =   2.0461044556513E+11
(PID.TID 0000.0001) %MON thSI_Ice_Area_S              =   0.0000000000000E+00
(PID.TID 0000.0001) %MON thSI_Ice_Area_N              =   2.0461044556513E+11
(PID.TID 0000.0001) %MON thSI_IceH_ave_G              =   1.1904238124760E-01
(PID.TID 0000.0001) %MON thSI_IceH_ave_S              =   0.0000000000000E+00
(PID.TID 0000.0001) %MON thSI_IceH_ave_N              =   1.1904238124760E-01
(PID.TID 0000.0001) %MON thSI_IceH_max_S              =   0.0000000000000E+00
(PID.TID 0000.0001) %MON thSI_IceH_max_N              =   1.4489770789531E-01
(PID.TID 0000.0001) %MON thSI_SnwH_ave_G              =   0.0000000000000E+00
(PID.TID 0000.0001) %MON thSI_SnwH_ave_S              =   0.0000000000000E+00
(PID.TID 0000.0001) %MON thSI_SnwH_ave_N              =   0.0000000000000E+00
(PID.TID 0000.0001) %MON thSI_SnwH_max_S              =   0.0000000000000E+00
(PID.TID 0000.0001) %MON thSI_SnwH_max_N              =   0.0000000000000E+00
(PID.TID 0000.0001) %MON thSI_Tsrf_ave_G              =  -7.8504929209892E+00
(PID.TID 0000.0001) %MON thSI_Tsrf_ave_S              =   0.0000000000000E+00
(PID.TID 0000.0001) %MON thSI_Tsrf_ave_N              =  -7.8504929209892E+00
(PID.TID 0000.0001) %MON thSI_Tsrf_min_S              =   0.0000000000000E+00
(PID.TID 0000.0001) %MON thSI_Tsrf_min_N              =  -8.6430990586942E+00
(PID.TID 0000.0001) %MON thSI_Tsrf_max_S              =   0.0000000000000E+00
(PID.TID 0000.0001) %MON thSI_Tsrf_max_N              =  -3.7070827757881E+00
(PID.TID 0000.0001) %MON thSI_Tic1_ave_G              =  -6.0193062697452E+00
(PID.TID 0000.0001) %MON thSI_Tic1_ave_S              =   0.0000000000000E+00
(PID.TID 0000.0001) %MON thSI_Tic1_ave_N              =  -6.0193062697452E+00
(PID.TID 0000.0001) %MON thSI_Tic1_min_S              =   0.0000000000000E+00
(PID.TID 0000.0001) %MON thSI_Tic1_min_N              =  -6.1850549198441E+00
(PID.TID 0000.0001) %MON thSI_Tic1_max_S              =   0.0000000000000E+00
(PID.TID 0000.0001) %MON thSI_Tic1_max_N              =  -3.2001015639309E+00
(PID.TID 0000.0001) %MON thSI_Tic2_ave_G              =  -2.9121852367243E+00
(PID.TID 0000.0001) %MON thSI_Tic2_ave_S              =   0.0000000000000E+00
(PID.TID 0000.0001) %MON thSI_Tic2_ave_N              =  -2.9121852367243E+00
(PID.TID 0000.0001) %MON thSI_Tic2_min_S              =   0.0000000000000E+00
(PID.TID 0000.0001) %MON thSI_Tic2_min_N              =  -3.0207452772004E+00
(PID.TID 0000.0001) %MON thSI_Tic2_max_S              =   0.0000000000000E+00
(PID.TID 0000.0001) %MON thSI_Tic2_max_N              =  -2.1875158328224E+00
(PID.TID 0000.0001) %MON thSI_TotEnerg_G              =  -7.4956229374688E+18
(PID.TID 0000.0001) // =======================================================
(PID.TID 0000.0001) // End MONITOR Therm.SeaIce statistics
(PID.TID 0000.0001) // =======================================================
 cg2d: Sum(rhs),rhsMax =   1.89174897968769E-09  2.39618068068758E+04
(PID.TID 0000.0001)      cg2d_init_res =   1.13164411008856E+04
(PID.TID 0000.0001)      cg2d_iters(min,last) =      -1      16
(PID.TID 0000.0001)      cg2d_last_res =   8.08957786651343E-11
(PID.TID 0000.0001) // =======================================================
(PID.TID 0000.0001) // Begin MONITOR dynamic field statistics
(PID.TID 0000.0001) // =======================================================
(PID.TID 0000.0001) %MON time_tsnumber                =                    21
(PID.TID 0000.0001) %MON time_secondsf                =   9.4500000000000E+03
(PID.TID 0000.0001) %MON dynstat_eta_max              =   4.3364927784848E+03
(PID.TID 0000.0001) %MON dynstat_eta_min              =  -9.0925493111529E+02
(PID.TID 0000.0001) %MON dynstat_eta_mean             =  -1.6065757781016E-15
(PID.TID 0000.0001) %MON dynstat_eta_sd               =   5.2685103131240E+02
(PID.TID 0000.0001) %MON dynstat_eta_del2             =   4.3682596872270E+00
(PID.TID 0000.0001) %MON dynstat_uvel_max             =   7.4561413662447E+00
(PID.TID 0000.0001) %MON dynstat_uvel_min             =  -6.6432932803456E+00
(PID.TID 0000.0001) %MON dynstat_uvel_mean            =  -1.3582195074308E-03
(PID.TID 0000.0001) %MON dynstat_uvel_sd              =   8.2155235646786E-01
(PID.TID 0000.0001) %MON dynstat_uvel_del2            =   1.3780938033635E-03
(PID.TID 0000.0001) %MON dynstat_vvel_max             =   6.3988703584182E+00
(PID.TID 0000.0001) %MON dynstat_vvel_min             =  -6.5860552218813E+00
(PID.TID 0000.0001) %MON dynstat_vvel_mean            =   2.6071379180905E-02
(PID.TID 0000.0001) %MON dynstat_vvel_sd              =   8.0630502173430E-01
(PID.TID 0000.0001) %MON dynstat_vvel_del2            =   1.3839608273413E-03
(PID.TID 0000.0001) %MON dynstat_wvel_max             =   1.9368109589933E-01
(PID.TID 0000.0001) %MON dynstat_wvel_min             =  -2.1707533076754E-01
(PID.TID 0000.0001) %MON dynstat_wvel_mean            =   1.4764232943752E-04
(PID.TID 0000.0001) %MON dynstat_wvel_sd              =   1.5365075757889E-02
(PID.TID 0000.0001) %MON dynstat_wvel_del2            =   1.5115948896060E-04
(PID.TID 0000.0001) %MON dynstat_theta_max            =   4.4094486986403E+02
(PID.TID 0000.0001) %MON dynstat_theta_min            =   2.8454270249992E+02
(PID.TID 0000.0001) %MON dynstat_theta_mean           =   3.3169334714758E+02
(PID.TID 0000.0001) %MON dynstat_theta_sd             =   4.7444930508647E+01
(PID.TID 0000.0001) %MON dynstat_theta_del2           =   2.2139544303741E-03
(PID.TID 0000.0001) %MON dynstat_salt_max             =   4.2602774769153E+00
(PID.TID 0000.0001) %MON dynstat_salt_min             =  -4.6353488812308E-03
(PID.TID 0000.0001) %MON dynstat_salt_mean            =   7.6856497543746E-02
(PID.TID 0000.0001) %MON dynstat_salt_sd              =   3.0926627193424E-01
(PID.TID 0000.0001) %MON dynstat_salt_del2            =   9.8631739557700E-04
(PID.TID 0000.0001) %MON trAdv_CFL_u_max              =   1.0539162458301E-02
(PID.TID 0000.0001) %MON trAdv_CFL_v_max              =   9.4273358300456E-03
(PID.TID 0000.0001) %MON trAdv_CFL_w_max              =   8.8201452121410E-03
(PID.TID 0000.0001) %MON advcfl_uvel_max              =   1.0627584410716E-02
(PID.TID 0000.0001) %MON advcfl_vvel_max              =   9.3787994357067E-03
(PID.TID 0000.0001) %MON advcfl_wvel_max              =   5.5203081277746E-03
(PID.TID 0000.0001) %MON advcfl_W_hf_max              =   8.8201452121410E-03
(PID.TID 0000.0001) %MON am_eta_mean                  =  -8.3223255189644E+09
(PID.TID 0000.0001) %MON am_uZo_mean                  =   8.2200293485990E+09
(PID.TID 0000.0001) %MON am_tot_mean                  =  -1.0229617036535E+08
(PID.TID 0000.0001) %MON pe_b_mean                    =  -8.7052054902104E-01
(PID.TID 0000.0001) %MON ke_max                       =   3.0993847711869E+01
(PID.TID 0000.0001) %MON ke_mean                      =   6.5895405194272E-01
(PID.TID 0000.0001) %MON ke_vol                       =   4.9523908919847E+19
(PID.TID 0000.0001) %MON vort_r_min                   =  -2.5710915540837E-05
(PID.TID 0000.0001) %MON vort_r_max                   =   1.6808751000520E-05
(PID.TID 0000.0001) %MON vort_a_mean                  =   6.7242814765350E-08
(PID.TID 0000.0001) %MON vort_a_sd                    =   8.3982566506714E-05
(PID.TID 0000.0001) %MON vort_p_mean                  =   6.8939463401953E-08
(PID.TID 0000.0001) %MON vort_p_sd                    =   9.2018773746507E-05
(PID.TID 0000.0001) %MON surfExpan_theta_mean         =  -1.4766545805051E-02
(PID.TID 0000.0001) %MON surfExpan_salt_mean          =  -6.3274593196941E-04
(PID.TID 0000.0001) %MON surfExpan_Heat_mean          =   1.3054362176421E+00
(PID.TID 0000.0001) %MON En_Budget_T2PE_mean          =  -2.4704038773831E+00
(PID.TID 0000.0001) // =======================================================
(PID.TID 0000.0001) // End MONITOR dynamic field statistics
(PID.TID 0000.0001) // =======================================================
(PID.TID 0000.0001) // =======================================================
(PID.TID 0000.0001) // Begin MONITOR Land statistics
(PID.TID 0000.0001) // =======================================================
(PID.TID 0000.0001) %MON land_time_sec                =   9.4500000000000E+03
(PID.TID 0000.0001) %MON land_SnwH_ave_G              =   1.5322732363411E-01
(PID.TID 0000.0001) %MON land_SnwH_ave_S              =   5.5904364253646E-01
(PID.TID 0000.0001) %MON land_SnwH_ave_T              =   0.0000000000000E+00
(PID.TID 0000.0001) %MON land_SnwH_ave_N              =   1.2390368284436E-01
(PID.TID 0000.0001) %MON land_SnwH_max_S              =   9.9998693086435E-01
(PID.TID 0000.0001) %MON land_SnwH_max_T              =   0.0000000000000E+00
(PID.TID 0000.0001) %MON land_SnwH_max_N              =   9.9999826610587E-01
(PID.TID 0000.0001) %MON land_Tsrf_ave_G              =  -8.1111840614896E+00
(PID.TID 0000.0001) %MON land_Tsrf_ave_S              =  -6.7676225322548E+00
(PID.TID 0000.0001) %MON land_Tsrf_ave_T              =   1.0677183533468E+01
(PID.TID 0000.0001) %MON land_Tsrf_ave_N              =  -2.1093346558600E+01
(PID.TID 0000.0001) %MON land_Tsrf_min_S              =  -3.1671783222733E+01
(PID.TID 0000.0001) %MON land_Tsrf_min_T              =  -4.1266029945282E+00
(PID.TID 0000.0001) %MON land_Tsrf_min_N              =  -5.0059244062343E+01
(PID.TID 0000.0001) %MON land_Tsrf_max_S              =   2.0827234461637E+01
(PID.TID 0000.0001) %MON land_Tsrf_max_T              =   2.1279693939590E+01
(PID.TID 0000.0001) %MON land_Tsrf_max_N              =   9.0275567160633E+00
(PID.TID 0000.0001) %MON land_Tgr1_ave_G              =  -6.9693308098528E+00
(PID.TID 0000.0001) %MON land_Tgr1_ave_S              =  -7.0301964732104E+00
(PID.TID 0000.0001) %MON land_Tgr1_ave_T              =   1.0677183533468E+01
(PID.TID 0000.0001) %MON land_Tgr1_ave_N              =  -1.8733409662882E+01
(PID.TID 0000.0001) %MON land_Tgr1_min_S              =  -3.9202011299739E+01
(PID.TID 0000.0001) %MON land_Tgr1_min_T              =  -4.1266029945282E+00
(PID.TID 0000.0001) %MON land_Tgr1_min_N              =  -5.4709680392585E+01
(PID.TID 0000.0001) %MON land_Tgr1_max_S              =   2.0827234461637E+01
(PID.TID 0000.0001) %MON land_Tgr1_max_T              =   2.1279693939590E+01
(PID.TID 0000.0001) %MON land_Tgr1_max_N              =   9.0275567160633E+00
(PID.TID 0000.0001) %MON land_Tgr2_ave_G              =   4.2044323141819E+00
(PID.TID 0000.0001) %MON land_Tgr2_ave_S              =  -1.8727427560899E+01
(PID.TID 0000.0001) %MON land_Tgr2_ave_T              =   2.2010175088553E+01
(PID.TID 0000.0001) %MON land_Tgr2_ave_N              =  -2.4676343515510E-01
(PID.TID 0000.0001) %MON land_Tgr2_min_S              =  -6.4753211588275E+01
(PID.TID 0000.0001) %MON land_Tgr2_min_T              =  -9.7040573423368E+00
(PID.TID 0000.0001) %MON land_Tgr2_min_N              =  -4.0198634630897E+01
(PID.TID 0000.0001) %MON land_Tgr2_max_S              =   2.3360267561767E+01
(PID.TID 0000.0001) %MON land_Tgr2_max_T              =   3.1353481365889E+01
(PID.TID 0000.0001) %MON land_Tgr2_max_N              =   2.9823720586204E+01
(PID.TID 0000.0001) %MON land_TotEnerg_G              =  -6.3451668241466E+21
(PID.TID 0000.0001) %MON land_TotEnerg_S              =  -5.0018487098877E+21
(PID.TID 0000.0001) %MON land_TotEnerg_T              =   7.2811076206811E+21
(PID.TID 0000.0001) %MON land_TotEnerg_N              =  -8.6244257349400E+21
(PID.TID 0000.0001) %MON land_grdW_ave_G              =   4.8679069176354E-01
(PID.TID 0000.0001) %MON land_grdW_ave_S              =   3.0855632097600E-01
(PID.TID 0000.0001) %MON land_grdW_ave_T              =   5.6426251433487E-01
(PID.TID 0000.0001) %MON land_grdW_ave_N              =   4.9287543094208E-01
(PID.TID 0000.0001) %MON land_grdW_min_S              =   2.7163906016362E-02
(PID.TID 0000.0001) %MON land_grdW_min_T              =   0.0000000000000E+00
(PID.TID 0000.0001) %MON land_grdW_min_N              =   0.0000000000000E+00
(PID.TID 0000.0001) // =======================================================
(PID.TID 0000.0001) // End MONITOR Land statistics
(PID.TID 0000.0001) // =======================================================
(PID.TID 0000.0001) // =======================================================
(PID.TID 0000.0001) // Begin MONITOR Therm.SeaIce statistics
(PID.TID 0000.0001) // =======================================================
(PID.TID 0000.0001) %MON thSI_time_sec                =   9.4500000000000E+03
(PID.TID 0000.0001) %MON thSI_Ice_Area_G              =   2.0720842735149E+11
(PID.TID 0000.0001) %MON thSI_Ice_Area_S              =   0.0000000000000E+00
(PID.TID 0000.0001) %MON thSI_Ice_Area_N              =   2.0720842735149E+11
(PID.TID 0000.0001) %MON thSI_IceH_ave_G              =   1.1880890404366E-01
(PID.TID 0000.0001) %MON thSI_IceH_ave_S              =   0.0000000000000E+00
(PID.TID 0000.0001) %MON thSI_IceH_ave_N              =   1.1880890404366E-01
(PID.TID 0000.0001) %MON thSI_IceH_max_S              =   0.0000000000000E+00
(PID.TID 0000.0001) %MON thSI_IceH_max_N              =   1.4524115821805E-01
(PID.TID 0000.0001) %MON thSI_SnwH_ave_G              =   0.0000000000000E+00
(PID.TID 0000.0001) %MON thSI_SnwH_ave_S              =   0.0000000000000E+00
(PID.TID 0000.0001) %MON thSI_SnwH_ave_N              =   0.0000000000000E+00
(PID.TID 0000.0001) %MON thSI_SnwH_max_S              =   0.0000000000000E+00
(PID.TID 0000.0001) %MON thSI_SnwH_max_N              =   0.0000000000000E+00
(PID.TID 0000.0001) %MON thSI_Tsrf_ave_G              =  -7.9149667246317E+00
(PID.TID 0000.0001) %MON thSI_Tsrf_ave_S              =   0.0000000000000E+00
(PID.TID 0000.0001) %MON thSI_Tsrf_ave_N              =  -7.9149667246317E+00
(PID.TID 0000.0001) %MON thSI_Tsrf_min_S              =   0.0000000000000E+00
(PID.TID 0000.0001) %MON thSI_Tsrf_min_N              =  -8.7510291875916E+00
(PID.TID 0000.0001) %MON thSI_Tsrf_max_S              =   0.0000000000000E+00
(PID.TID 0000.0001) %MON thSI_Tsrf_max_N              =  -3.7380764379169E+00
(PID.TID 0000.0001) %MON thSI_Tic1_ave_G              =  -6.1343080969356E+00
(PID.TID 0000.0001) %MON thSI_Tic1_ave_S              =   0.0000000000000E+00
(PID.TID 0000.0001) %MON thSI_Tic1_ave_N              =  -6.1343080969356E+00
(PID.TID 0000.0001) %MON thSI_Tic1_min_S              =   0.0000000000000E+00
(PID.TID 0000.0001) %MON thSI_Tic1_min_N              =  -6.3031198200582E+00
(PID.TID 0000.0001) %MON thSI_Tic1_max_S              =   0.0000000000000E+00
(PID.TID 0000.0001) %MON thSI_Tic1_max_N              =  -3.2232119461114E+00
(PID.TID 0000.0001) %MON thSI_Tic2_ave_G              =  -2.9636409977569E+00
(PID.TID 0000.0001) %MON thSI_Tic2_ave_S              =   0.0000000000000E+00
(PID.TID 0000.0001) %MON thSI_Tic2_ave_N              =  -2.9636409977569E+00
(PID.TID 0000.0001) %MON thSI_Tic2_min_S              =   0.0000000000000E+00
(PID.TID 0000.0001) %MON thSI_Tic2_min_N              =  -3.0714964587689E+00
(PID.TID 0000.0001) %MON thSI_Tic2_max_S              =   0.0000000000000E+00
(PID.TID 0000.0001) %MON thSI_Tic2_max_N              =  -2.1951223700070E+00
(PID.TID 0000.0001) %MON thSI_TotEnerg_G              =  -7.5803628021022E+18
(PID.TID 0000.0001) // =======================================================
(PID.TID 0000.0001) // End MONITOR Therm.SeaIce statistics
(PID.TID 0000.0001) // =======================================================
 cg2d: Sum(rhs),rhsMax =   2.32830643653870E-10  2.32221203942066E+04
(PID.TID 0000.0001)      cg2d_init_res =   1.11910633171635E+04
(PID.TID 0000.0001)      cg2d_iters(min,last) =      -1      16
(PID.TID 0000.0001)      cg2d_last_res =   8.13590489369704E-11
(PID.TID 0000.0001) // =======================================================
(PID.TID 0000.0001) // Begin MONITOR dynamic field statistics
(PID.TID 0000.0001) // =======================================================
(PID.TID 0000.0001) %MON time_tsnumber                =                    22
(PID.TID 0000.0001) %MON time_secondsf                =   9.9000000000000E+03
(PID.TID 0000.0001) %MON dynstat_eta_max              =   4.1480718025050E+03
(PID.TID 0000.0001) %MON dynstat_eta_min              =  -8.6204633174756E+02
(PID.TID 0000.0001) %MON dynstat_eta_mean             =  -2.4098636671523E-14
(PID.TID 0000.0001) %MON dynstat_eta_sd               =   5.2048105191270E+02
(PID.TID 0000.0001) %MON dynstat_eta_del2             =   4.3374944134120E+00
(PID.TID 0000.0001) %MON dynstat_uvel_max             =   7.0639703678867E+00
(PID.TID 0000.0001) %MON dynstat_uvel_min             =  -6.4894532390027E+00
(PID.TID 0000.0001) %MON dynstat_uvel_mean            =   1.8459039493064E-03
(PID.TID 0000.0001) %MON dynstat_uvel_sd              =   8.2338478967781E-01
(PID.TID 0000.0001) %MON dynstat_uvel_del2            =   1.3776354488654E-03
(PID.TID 0000.0001) %MON dynstat_vvel_max             =   6.5730503227922E+00
(PID.TID 0000.0001) %MON dynstat_vvel_min             =  -6.8446339421543E+00
(PID.TID 0000.0001) %MON dynstat_vvel_mean            =   2.5861634006838E-02
(PID.TID 0000.0001) %MON dynstat_vvel_sd              =   8.1194455829486E-01
(PID.TID 0000.0001) %MON dynstat_vvel_del2            =   1.4024298573719E-03
(PID.TID 0000.0001) %MON dynstat_wvel_max             =   1.9431273847538E-01
(PID.TID 0000.0001) %MON dynstat_wvel_min             =  -2.1600757772172E-01
(PID.TID 0000.0001) %MON dynstat_wvel_mean            =   2.6146578183842E-04
(PID.TID 0000.0001) %MON dynstat_wvel_sd              =   1.5401865822321E-02
(PID.TID 0000.0001) %MON dynstat_wvel_del2            =   1.5113340950582E-04
(PID.TID 0000.0001) %MON dynstat_theta_max            =   4.4081076637044E+02
(PID.TID 0000.0001) %MON dynstat_theta_min            =   2.8431871988286E+02
(PID.TID 0000.0001) %MON dynstat_theta_mean           =   3.3169144428484E+02
(PID.TID 0000.0001) %MON dynstat_theta_sd             =   4.7446916419811E+01
(PID.TID 0000.0001) %MON dynstat_theta_del2           =   2.2225065498756E-03
(PID.TID 0000.0001) %MON dynstat_salt_max             =   4.3272055952791E+00
(PID.TID 0000.0001) %MON dynstat_salt_min             =  -6.2943170048307E-03
(PID.TID 0000.0001) %MON dynstat_salt_mean            =   8.0274711692087E-02
(PID.TID 0000.0001) %MON dynstat_salt_sd              =   3.2166526563486E-01
(PID.TID 0000.0001) %MON dynstat_salt_del2            =   1.0134607122360E-03
(PID.TID 0000.0001) %MON trAdv_CFL_u_max              =   9.9880421786093E-03
(PID.TID 0000.0001) %MON trAdv_CFL_v_max              =   9.7073562707581E-03
(PID.TID 0000.0001) %MON trAdv_CFL_w_max              =   8.4139697776103E-03
(PID.TID 0000.0001) %MON advcfl_uvel_max              =   1.0068604881793E-02
(PID.TID 0000.0001) %MON advcfl_vvel_max              =   9.7566670893894E-03
(PID.TID 0000.0001) %MON advcfl_wvel_max              =   5.5544805699870E-03
(PID.TID 0000.0001) %MON advcfl_W_hf_max              =   8.4139697776102E-03
(PID.TID 0000.0001) %MON am_eta_mean                  =  -8.9853645733364E+09
(PID.TID 0000.0001) %MON am_uZo_mean                  =   8.8740408511375E+09
(PID.TID 0000.0001) %MON am_tot_mean                  =  -1.1132372219891E+08
(PID.TID 0000.0001) %MON pe_b_mean                    =  -8.8426151850317E-01
(PID.TID 0000.0001) %MON ke_max                       =   3.1082424336368E+01
(PID.TID 0000.0001) %MON ke_mean                      =   6.6498215910287E-01
(PID.TID 0000.0001) %MON ke_vol                       =   4.9523908919847E+19
(PID.TID 0000.0001) %MON vort_r_min                   =  -2.5921762650522E-05
(PID.TID 0000.0001) %MON vort_r_max                   =   1.7153896252630E-05
(PID.TID 0000.0001) %MON vort_a_mean                  =   6.7242814765306E-08
(PID.TID 0000.0001) %MON vort_a_sd                    =   8.3985320983617E-05
(PID.TID 0000.0001) %MON vort_p_mean                  =   6.8939464152361E-08
(PID.TID 0000.0001) %MON vort_p_sd                    =   9.2014714546261E-05
(PID.TID 0000.0001) %MON surfExpan_theta_mean         =  -2.5169393469161E-02
(PID.TID 0000.0001) %MON surfExpan_salt_mean          =  -7.1777383085806E-04
(PID.TID 0000.0001) %MON surfExpan_Heat_mean          =   2.2576427593828E+00
(PID.TID 0000.0001) %MON En_Budget_T2PE_mean          =  -4.1890122500101E+00
(PID.TID 0000.0001) // =======================================================
(PID.TID 0000.0001) // End MONITOR dynamic field statistics
(PID.TID 0000.0001) // =======================================================
(PID.TID 0000.0001) // =======================================================
(PID.TID 0000.0001) // Begin MONITOR Land statistics
(PID.TID 0000.0001) // =======================================================
(PID.TID 0000.0001) %MON land_time_sec                =   9.9000000000000E+03
(PID.TID 0000.0001) %MON land_SnwH_ave_G              =   1.5322634741559E-01
(PID.TID 0000.0001) %MON land_SnwH_ave_S              =   5.5904268777550E-01
(PID.TID 0000.0001) %MON land_SnwH_ave_T              =   0.0000000000000E+00
(PID.TID 0000.0001) %MON land_SnwH_ave_N              =   1.2390204777512E-01
(PID.TID 0000.0001) %MON land_SnwH_max_S              =   9.9998625256760E-01
(PID.TID 0000.0001) %MON land_SnwH_max_T              =   0.0000000000000E+00
(PID.TID 0000.0001) %MON land_SnwH_max_N              =   9.9999818539069E-01
(PID.TID 0000.0001) %MON land_Tsrf_ave_G              =  -8.1640251510862E+00
(PID.TID 0000.0001) %MON land_Tsrf_ave_S              =  -6.7835877148325E+00
(PID.TID 0000.0001) %MON land_Tsrf_ave_T              =   1.0561427184154E+01
(PID.TID 0000.0001) %MON land_Tsrf_ave_N              =  -2.1116137007611E+01
(PID.TID 0000.0001) %MON land_Tsrf_min_S              =  -3.1734042747635E+01
(PID.TID 0000.0001) %MON land_Tsrf_min_T              =  -4.0013557953236E+00
(PID.TID 0000.0001) %MON land_Tsrf_min_N              =  -5.0102756942909E+01
(PID.TID 0000.0001) %MON land_Tsrf_max_S              =   2.0692010620720E+01
(PID.TID 0000.0001) %MON land_Tsrf_max_T              =   2.1067844017173E+01
(PID.TID 0000.0001) %MON land_Tsrf_max_N              =   8.8768126925580E+00
(PID.TID 0000.0001) %MON land_Tgr1_ave_G              =  -7.0289777266768E+00
(PID.TID 0000.0001) %MON land_Tgr1_ave_S              =  -7.0685584285467E+00
(PID.TID 0000.0001) %MON land_Tgr1_ave_T              =   1.0561427184154E+01
(PID.TID 0000.0001) %MON land_Tgr1_ave_N              =  -1.8762493062654E+01
(PID.TID 0000.0001) %MON land_Tgr1_min_S              =  -3.9211238195539E+01
(PID.TID 0000.0001) %MON land_Tgr1_min_T              =  -4.0013557953236E+00
(PID.TID 0000.0001) %MON land_Tgr1_min_N              =  -5.4695234441980E+01
(PID.TID 0000.0001) %MON land_Tgr1_max_S              =   2.0692010620720E+01
(PID.TID 0000.0001) %MON land_Tgr1_max_T              =   2.1067844017173E+01
(PID.TID 0000.0001) %MON land_Tgr1_max_N              =   8.8768126925580E+00
(PID.TID 0000.0001) %MON land_Tgr2_ave_G              =   4.2042600276465E+00
(PID.TID 0000.0001) %MON land_Tgr2_ave_S              =  -1.8727232232060E+01
(PID.TID 0000.0001) %MON land_Tgr2_ave_T              =   2.2009989513694E+01
(PID.TID 0000.0001) %MON land_Tgr2_ave_N              =  -2.4704610032636E-01
(PID.TID 0000.0001) %MON land_Tgr2_min_S              =  -6.4752781005725E+01
(PID.TID 0000.0001) %MON land_Tgr2_min_T              =  -9.7039852878996E+00
(PID.TID 0000.0001) %MON land_Tgr2_min_N              =  -4.0198870643771E+01
(PID.TID 0000.0001) %MON land_Tgr2_max_S              =   2.3360209994881E+01
(PID.TID 0000.0001) %MON land_Tgr2_max_T              =   3.1353059798148E+01
(PID.TID 0000.0001) %MON land_Tgr2_max_N              =   2.9823209664628E+01
(PID.TID 0000.0001) %MON land_TotEnerg_G              =  -6.3469347783763E+21
(PID.TID 0000.0001) %MON land_TotEnerg_S              =  -5.0019588682972E+21
(PID.TID 0000.0001) %MON land_TotEnerg_T              =   7.2800889460827E+21
(PID.TID 0000.0001) %MON land_TotEnerg_N              =  -8.6250648561618E+21
(PID.TID 0000.0001) %MON land_grdW_ave_G              =   4.8678251529492E-01
(PID.TID 0000.0001) %MON land_grdW_ave_S              =   3.0854830837887E-01
(PID.TID 0000.0001) %MON land_grdW_ave_T              =   5.6424245888951E-01
(PID.TID 0000.0001) %MON land_grdW_ave_N              =   4.9287513374586E-01
(PID.TID 0000.0001) %MON land_grdW_min_S              =   2.7250514672898E-02
(PID.TID 0000.0001) %MON land_grdW_min_T              =   0.0000000000000E+00
(PID.TID 0000.0001) %MON land_grdW_min_N              =   0.0000000000000E+00
(PID.TID 0000.0001) // =======================================================
(PID.TID 0000.0001) // End MONITOR Land statistics
(PID.TID 0000.0001) // =======================================================
(PID.TID 0000.0001) // =======================================================
(PID.TID 0000.0001) // Begin MONITOR Therm.SeaIce statistics
(PID.TID 0000.0001) // =======================================================
(PID.TID 0000.0001) %MON thSI_time_sec                =   9.9000000000000E+03
(PID.TID 0000.0001) %MON thSI_Ice_Area_G              =   2.0975523813992E+11
(PID.TID 0000.0001) %MON thSI_Ice_Area_S              =   0.0000000000000E+00
(PID.TID 0000.0001) %MON thSI_Ice_Area_N              =   2.0975523813992E+11
(PID.TID 0000.0001) %MON thSI_IceH_ave_G              =   1.1861532383288E-01
(PID.TID 0000.0001) %MON thSI_IceH_ave_S              =   0.0000000000000E+00
(PID.TID 0000.0001) %MON thSI_IceH_ave_N              =   1.1861532383288E-01
(PID.TID 0000.0001) %MON thSI_IceH_max_S              =   0.0000000000000E+00
(PID.TID 0000.0001) %MON thSI_IceH_max_N              =   1.4558869498094E-01
(PID.TID 0000.0001) %MON thSI_SnwH_ave_G              =   0.0000000000000E+00
(PID.TID 0000.0001) %MON thSI_SnwH_ave_S              =   0.0000000000000E+00
(PID.TID 0000.0001) %MON thSI_SnwH_ave_N              =   0.0000000000000E+00
(PID.TID 0000.0001) %MON thSI_SnwH_max_S              =   0.0000000000000E+00
(PID.TID 0000.0001) %MON thSI_SnwH_max_N              =   0.0000000000000E+00
(PID.TID 0000.0001) %MON thSI_Tsrf_ave_G              =  -7.9732170676668E+00
(PID.TID 0000.0001) %MON thSI_Tsrf_ave_S              =   0.0000000000000E+00
(PID.TID 0000.0001) %MON thSI_Tsrf_ave_N              =  -7.9732170676668E+00
(PID.TID 0000.0001) %MON thSI_Tsrf_min_S              =   0.0000000000000E+00
(PID.TID 0000.0001) %MON thSI_Tsrf_min_N              =  -8.8510352528620E+00
(PID.TID 0000.0001) %MON thSI_Tsrf_max_S              =   0.0000000000000E+00
(PID.TID 0000.0001) %MON thSI_Tsrf_max_N              =  -3.7683248215285E+00
(PID.TID 0000.0001) %MON thSI_Tic1_ave_G              =  -6.2401545540548E+00
(PID.TID 0000.0001) %MON thSI_Tic1_ave_S              =   0.0000000000000E+00
(PID.TID 0000.0001) %MON thSI_Tic1_ave_N              =  -6.2401545540548E+00
(PID.TID 0000.0001) %MON thSI_Tic1_min_S              =   0.0000000000000E+00
(PID.TID 0000.0001) %MON thSI_Tic1_min_N              =  -6.4116390219685E+00
(PID.TID 0000.0001) %MON thSI_Tic1_max_S              =   0.0000000000000E+00
(PID.TID 0000.0001) %MON thSI_Tic1_max_N              =  -3.2457808517220E+00
(PID.TID 0000.0001) %MON thSI_Tic2_ave_G              =  -3.0107340786148E+00
(PID.TID 0000.0001) %MON thSI_Tic2_ave_S              =   0.0000000000000E+00
(PID.TID 0000.0001) %MON thSI_Tic2_ave_N              =  -3.0107340786148E+00
(PID.TID 0000.0001) %MON thSI_Tic2_min_S              =   0.0000000000000E+00
(PID.TID 0000.0001) %MON thSI_Tic2_min_N              =  -3.1178595087886E+00
(PID.TID 0000.0001) %MON thSI_Tic2_max_S              =   0.0000000000000E+00
(PID.TID 0000.0001) %MON thSI_Tic2_max_N              =  -2.2025515248283E+00
(PID.TID 0000.0001) %MON thSI_TotEnerg_G              =  -7.6651448835431E+18
(PID.TID 0000.0001) // =======================================================
(PID.TID 0000.0001) // End MONITOR Therm.SeaIce statistics
(PID.TID 0000.0001) // =======================================================
 cg2d: Sum(rhs),rhsMax =  -6.69388100504875E-10  2.23706638040396E+04
(PID.TID 0000.0001)      cg2d_init_res =   1.10750034562088E+04
(PID.TID 0000.0001)      cg2d_iters(min,last) =      -1      16
(PID.TID 0000.0001)      cg2d_last_res =   8.39685752178326E-11
(PID.TID 0000.0001) // =======================================================
(PID.TID 0000.0001) // Begin MONITOR dynamic field statistics
(PID.TID 0000.0001) // =======================================================
(PID.TID 0000.0001) %MON time_tsnumber                =                    23
(PID.TID 0000.0001) %MON time_secondsf                =   1.0350000000000E+04
(PID.TID 0000.0001) %MON dynstat_eta_max              =   3.9447818077360E+03
(PID.TID 0000.0001) %MON dynstat_eta_min              =  -8.0072870193296E+02
(PID.TID 0000.0001) %MON dynstat_eta_mean             =   4.0164394452539E-14
(PID.TID 0000.0001) %MON dynstat_eta_sd               =   5.1270278436008E+02
(PID.TID 0000.0001) %MON dynstat_eta_del2             =   4.3114402671385E+00
(PID.TID 0000.0001) %MON dynstat_uvel_max             =   7.0048081448236E+00
(PID.TID 0000.0001) %MON dynstat_uvel_min             =  -6.2855470792788E+00
(PID.TID 0000.0001) %MON dynstat_uvel_mean            =   5.6820278604110E-03
(PID.TID 0000.0001) %MON dynstat_uvel_sd              =   8.2323725718596E-01
(PID.TID 0000.0001) %MON dynstat_uvel_del2            =   1.3809206865556E-03
(PID.TID 0000.0001) %MON dynstat_vvel_max             =   6.5735582550946E+00
(PID.TID 0000.0001) %MON dynstat_vvel_min             =  -7.0506276610741E+00
(PID.TID 0000.0001) %MON dynstat_vvel_mean            =   2.5372876318051E-02
(PID.TID 0000.0001) %MON dynstat_vvel_sd              =   8.1801861345919E-01
(PID.TID 0000.0001) %MON dynstat_vvel_del2            =   1.4210316053260E-03
(PID.TID 0000.0001) %MON dynstat_wvel_max             =   1.8505504154206E-01
(PID.TID 0000.0001) %MON dynstat_wvel_min             =  -2.1265649814816E-01
(PID.TID 0000.0001) %MON dynstat_wvel_mean            =   3.5555948931404E-04
(PID.TID 0000.0001) %MON dynstat_wvel_sd              =   1.5455749244778E-02
(PID.TID 0000.0001) %MON dynstat_wvel_del2            =   1.5148096327758E-04
(PID.TID 0000.0001) %MON dynstat_theta_max            =   4.4063865251254E+02
(PID.TID 0000.0001) %MON dynstat_theta_min            =   2.8409612425546E+02
(PID.TID 0000.0001) %MON dynstat_theta_mean           =   3.3168949973225E+02
(PID.TID 0000.0001) %MON dynstat_theta_sd             =   4.7448913335480E+01
(PID.TID 0000.0001) %MON dynstat_theta_del2           =   2.2415134799831E-03
(PID.TID 0000.0001) %MON dynstat_salt_max             =   4.3896425686143E+00
(PID.TID 0000.0001) %MON dynstat_salt_min             =  -8.0193525993413E-03
(PID.TID 0000.0001) %MON dynstat_salt_mean            =   8.3679723023263E-02
(PID.TID 0000.0001) %MON dynstat_salt_sd              =   3.3394015310595E-01
(PID.TID 0000.0001) %MON dynstat_salt_del2            =   1.0403773418435E-03
(PID.TID 0000.0001) %MON trAdv_CFL_u_max              =   9.8842795291932E-03
(PID.TID 0000.0001) %MON trAdv_CFL_v_max              =   1.0001663828488E-02
(PID.TID 0000.0001) %MON trAdv_CFL_w_max              =   7.9941317516511E-03
(PID.TID 0000.0001) %MON advcfl_uvel_max              =   9.9473929106707E-03
(PID.TID 0000.0001) %MON advcfl_vvel_max              =   1.0050300343555E-02
(PID.TID 0000.0001) %MON advcfl_wvel_max              =   5.4683099523814E-03
(PID.TID 0000.0001) %MON advcfl_W_hf_max              =   7.9941317516511E-03
(PID.TID 0000.0001) %MON am_eta_mean                  =  -9.6492586978409E+09
(PID.TID 0000.0001) %MON am_uZo_mean                  =   9.5289397979379E+09
(PID.TID 0000.0001) %MON am_tot_mean                  =  -1.2031889990301E+08
(PID.TID 0000.0001) %MON pe_b_mean                    =  -8.9753395981517E-01
(PID.TID 0000.0001) %MON ke_max                       =   3.1052758575498E+01
(PID.TID 0000.0001) %MON ke_mean                      =   6.6978250126947E-01
(PID.TID 0000.0001) %MON ke_vol                       =   4.9523908919847E+19
(PID.TID 0000.0001) %MON vort_r_min                   =  -2.5804227665183E-05
(PID.TID 0000.0001) %MON vort_r_max                   =   1.7461340913005E-05
(PID.TID 0000.0001) %MON vort_a_mean                  =   6.7242814765323E-08
(PID.TID 0000.0001) %MON vort_a_sd                    =   8.3988032042920E-05
(PID.TID 0000.0001) %MON vort_p_mean                  =   6.8939465001474E-08
(PID.TID 0000.0001) %MON vort_p_sd                    =   9.2008839999738E-05
(PID.TID 0000.0001) %MON surfExpan_theta_mean         =  -3.3703501615208E-02
(PID.TID 0000.0001) %MON surfExpan_salt_mean          =  -8.0814478292730E-04
(PID.TID 0000.0001) %MON surfExpan_Heat_mean          =   3.0402967215066E+00
(PID.TID 0000.0001) %MON En_Budget_T2PE_mean          =  -5.6005433467945E+00
(PID.TID 0000.0001) // =======================================================
(PID.TID 0000.0001) // End MONITOR dynamic field statistics
(PID.TID 0000.0001) // =======================================================
(PID.TID 0000.0001) // =======================================================
(PID.TID 0000.0001) // Begin MONITOR Land statistics
(PID.TID 0000.0001) // =======================================================
(PID.TID 0000.0001) %MON land_time_sec                =   1.0350000000000E+04
(PID.TID 0000.0001) %MON land_SnwH_ave_G              =   1.5322537327833E-01
(PID.TID 0000.0001) %MON land_SnwH_ave_S              =   5.5904173223760E-01
(PID.TID 0000.0001) %MON land_SnwH_ave_T              =   0.0000000000000E+00
(PID.TID 0000.0001) %MON land_SnwH_ave_N              =   1.2390041710412E-01
(PID.TID 0000.0001) %MON land_SnwH_max_S              =   9.9998558059423E-01
(PID.TID 0000.0001) %MON land_SnwH_max_T              =   0.0000000000000E+00
(PID.TID 0000.0001) %MON land_SnwH_max_N              =   9.9999810456971E-01
(PID.TID 0000.0001) %MON land_Tsrf_ave_G              =  -8.2120223383922E+00
(PID.TID 0000.0001) %MON land_Tsrf_ave_S              =  -6.7969460107015E+00
(PID.TID 0000.0001) %MON land_Tsrf_ave_T              =   1.0455904959891E+01
(PID.TID 0000.0001) %MON land_Tsrf_ave_N              =  -2.1136957312344E+01
(PID.TID 0000.0001) %MON land_Tsrf_min_S              =  -3.1814169313849E+01
(PID.TID 0000.0001) %MON land_Tsrf_min_T              =  -3.8801083745556E+00
(PID.TID 0000.0001) %MON land_Tsrf_min_N              =  -5.0143638736720E+01
(PID.TID 0000.0001) %MON land_Tsrf_max_S              =   2.0571860024653E+01
(PID.TID 0000.0001) %MON land_Tsrf_max_T              =   2.0877323922569E+01
(PID.TID 0000.0001) %MON land_Tsrf_max_N              =   8.7345451427515E+00
(PID.TID 0000.0001) %MON land_Tgr1_ave_G              =  -7.0835905551617E+00
(PID.TID 0000.0001) %MON land_Tgr1_ave_S              =  -7.1024882666868E+00
(PID.TID 0000.0001) %MON land_Tgr1_ave_T              =   1.0455904959891E+01
(PID.TID 0000.0001) %MON land_Tgr1_ave_N              =  -1.8789819529903E+01
(PID.TID 0000.0001) %MON land_Tgr1_min_S              =  -3.9220484273337E+01
(PID.TID 0000.0001) %MON land_Tgr1_min_T              =  -3.8801083745556E+00
(PID.TID 0000.0001) %MON land_Tgr1_min_N              =  -5.4680809564929E+01
(PID.TID 0000.0001) %MON land_Tgr1_max_S              =   2.0571860024653E+01
(PID.TID 0000.0001) %MON land_Tgr1_max_T              =   2.0877323922569E+01
(PID.TID 0000.0001) %MON land_Tgr1_max_N              =   8.7345451427515E+00
(PID.TID 0000.0001) %MON land_Tgr2_ave_G              =   4.2040869223608E+00
(PID.TID 0000.0001) %MON land_Tgr2_ave_S              =  -1.8727037443113E+01
(PID.TID 0000.0001) %MON land_Tgr2_ave_T              =   2.2009802403862E+01
(PID.TID 0000.0001) %MON land_Tgr2_ave_N              =  -2.4732919643565E-01
(PID.TID 0000.0001) %MON land_Tgr2_min_S              =  -6.4752350601801E+01
(PID.TID 0000.0001) %MON land_Tgr2_min_T              =  -9.7039117026048E+00
(PID.TID 0000.0001) %MON land_Tgr2_min_N              =  -4.0199106409732E+01
(PID.TID 0000.0001) %MON land_Tgr2_max_S              =   2.3360150036267E+01
(PID.TID 0000.0001) %MON land_Tgr2_max_T              =   3.1352635024852E+01
(PID.TID 0000.0001) %MON land_Tgr2_max_N              =   2.9822693326326E+01
(PID.TID 0000.0001) %MON land_TotEnerg_G              =  -6.3485873445859E+21
(PID.TID 0000.0001) %MON land_TotEnerg_S              =  -5.0020536983813E+21
(PID.TID 0000.0001) %MON land_TotEnerg_T              =   7.2791570769453E+21
(PID.TID 0000.0001) %MON land_TotEnerg_N              =  -8.6256907231500E+21
(PID.TID 0000.0001) %MON land_grdW_ave_G              =   4.8677449129202E-01
(PID.TID 0000.0001) %MON land_grdW_ave_S              =   3.0854039034755E-01
(PID.TID 0000.0001) %MON land_grdW_ave_T              =   5.6422280882916E-01
(PID.TID 0000.0001) %MON land_grdW_ave_N              =   4.9287483890565E-01
(PID.TID 0000.0001) %MON land_grdW_min_S              =   2.7337488208364E-02
(PID.TID 0000.0001) %MON land_grdW_min_T              =   0.0000000000000E+00
(PID.TID 0000.0001) %MON land_grdW_min_N              =   0.0000000000000E+00
(PID.TID 0000.0001) // =======================================================
(PID.TID 0000.0001) // End MONITOR Land statistics
(PID.TID 0000.0001) // =======================================================
(PID.TID 0000.0001) // =======================================================
(PID.TID 0000.0001) // Begin MONITOR Therm.SeaIce statistics
(PID.TID 0000.0001) // =======================================================
(PID.TID 0000.0001) %MON thSI_time_sec                =   1.0350000000000E+04
(PID.TID 0000.0001) %MON thSI_Ice_Area_G              =   2.1225327826545E+11
(PID.TID 0000.0001) %MON thSI_Ice_Area_S              =   0.0000000000000E+00
(PID.TID 0000.0001) %MON thSI_Ice_Area_N              =   2.1225327826545E+11
(PID.TID 0000.0001) %MON thSI_IceH_ave_G              =   1.1845840353824E-01
(PID.TID 0000.0001) %MON thSI_IceH_ave_S              =   0.0000000000000E+00
(PID.TID 0000.0001) %MON thSI_IceH_ave_N              =   1.1845840353824E-01
(PID.TID 0000.0001) %MON thSI_IceH_max_S              =   0.0000000000000E+00
(PID.TID 0000.0001) %MON thSI_IceH_max_N              =   1.4593996933883E-01
(PID.TID 0000.0001) %MON thSI_SnwH_ave_G              =   0.0000000000000E+00
(PID.TID 0000.0001) %MON thSI_SnwH_ave_S              =   0.0000000000000E+00
(PID.TID 0000.0001) %MON thSI_SnwH_ave_N              =   0.0000000000000E+00
(PID.TID 0000.0001) %MON thSI_SnwH_max_S              =   0.0000000000000E+00
(PID.TID 0000.0001) %MON thSI_SnwH_max_N              =   0.0000000000000E+00
(PID.TID 0000.0001) %MON thSI_Tsrf_ave_G              =  -8.0257576996805E+00
(PID.TID 0000.0001) %MON thSI_Tsrf_ave_S              =   0.0000000000000E+00
(PID.TID 0000.0001) %MON thSI_Tsrf_ave_N              =  -8.0257576996805E+00
(PID.TID 0000.0001) %MON thSI_Tsrf_min_S              =   0.0000000000000E+00
(PID.TID 0000.0001) %MON thSI_Tsrf_min_N              =  -8.9434223677145E+00
(PID.TID 0000.0001) %MON thSI_Tsrf_max_S              =   0.0000000000000E+00
(PID.TID 0000.0001) %MON thSI_Tsrf_max_N              =  -3.7978915136069E+00
(PID.TID 0000.0001) %MON thSI_Tic1_ave_G              =  -6.3373808354715E+00
(PID.TID 0000.0001) %MON thSI_Tic1_ave_S              =   0.0000000000000E+00
(PID.TID 0000.0001) %MON thSI_Tic1_ave_N              =  -6.3373808354715E+00
(PID.TID 0000.0001) %MON thSI_Tic1_min_S              =   0.0000000000000E+00
(PID.TID 0000.0001) %MON thSI_Tic1_min_N              =  -6.5155162575102E+00
(PID.TID 0000.0001) %MON thSI_Tic1_max_S              =   0.0000000000000E+00
(PID.TID 0000.0001) %MON thSI_Tic1_max_N              =  -3.2678371212562E+00
(PID.TID 0000.0001) %MON thSI_Tic2_ave_G              =  -3.0538750333362E+00
(PID.TID 0000.0001) %MON thSI_Tic2_ave_S              =   0.0000000000000E+00
(PID.TID 0000.0001) %MON thSI_Tic2_ave_N              =  -3.0538750333362E+00
(PID.TID 0000.0001) %MON thSI_Tic2_min_S              =   0.0000000000000E+00
(PID.TID 0000.0001) %MON thSI_Tic2_min_N              =  -3.1602568284571E+00
(PID.TID 0000.0001) %MON thSI_Tic2_max_S              =   0.0000000000000E+00
(PID.TID 0000.0001) %MON thSI_Tic2_max_N              =  -2.2098100605170E+00
(PID.TID 0000.0001) %MON thSI_TotEnerg_G              =  -7.7499678850303E+18
(PID.TID 0000.0001) // =======================================================
(PID.TID 0000.0001) // End MONITOR Therm.SeaIce statistics
(PID.TID 0000.0001) // =======================================================
 cg2d: Sum(rhs),rhsMax =  -4.65661287307739E-10  2.14794716907020E+04
(PID.TID 0000.0001)      cg2d_init_res =   1.09689957213807E+04
(PID.TID 0000.0001)      cg2d_iters(min,last) =      -1      16
(PID.TID 0000.0001)      cg2d_last_res =   8.56748585616098E-11
(PID.TID 0000.0001) // =======================================================
(PID.TID 0000.0001) // Begin MONITOR dynamic field statistics
(PID.TID 0000.0001) // =======================================================
(PID.TID 0000.0001) %MON time_tsnumber                =                    24
(PID.TID 0000.0001) %MON time_secondsf                =   1.0800000000000E+04
(PID.TID 0000.0001) %MON dynstat_eta_max              =   3.7445293108317E+03
(PID.TID 0000.0001) %MON dynstat_eta_min              =  -7.6013227445770E+02
(PID.TID 0000.0001) %MON dynstat_eta_mean             =   4.9803849121148E-14
(PID.TID 0000.0001) %MON dynstat_eta_sd               =   5.0386558217157E+02
(PID.TID 0000.0001) %MON dynstat_eta_del2             =   4.2917660949908E+00
(PID.TID 0000.0001) %MON dynstat_uvel_max             =   7.0487631229201E+00
(PID.TID 0000.0001) %MON dynstat_uvel_min             =  -6.0478706045161E+00
(PID.TID 0000.0001) %MON dynstat_uvel_mean            =   1.0139379855053E-02
(PID.TID 0000.0001) %MON dynstat_uvel_sd              =   8.2127920511910E-01
(PID.TID 0000.0001) %MON dynstat_uvel_del2            =   1.3891029632300E-03
(PID.TID 0000.0001) %MON dynstat_vvel_max             =   6.5555782987951E+00
(PID.TID 0000.0001) %MON dynstat_vvel_min             =  -7.2374723707967E+00
(PID.TID 0000.0001) %MON dynstat_vvel_mean            =   2.4641706045177E-02
(PID.TID 0000.0001) %MON dynstat_vvel_sd              =   8.2391775528826E-01
(PID.TID 0000.0001) %MON dynstat_vvel_del2            =   1.4405121855187E-03
(PID.TID 0000.0001) %MON dynstat_wvel_max             =   1.9855879481025E-01
(PID.TID 0000.0001) %MON dynstat_wvel_min             =  -2.0792993307207E-01
(PID.TID 0000.0001) %MON dynstat_wvel_mean            =   4.2877413349628E-04
(PID.TID 0000.0001) %MON dynstat_wvel_sd              =   1.5525848645816E-02
(PID.TID 0000.0001) %MON dynstat_wvel_del2            =   1.5218934854383E-04
(PID.TID 0000.0001) %MON dynstat_theta_max            =   4.4052473534812E+02
(PID.TID 0000.0001) %MON dynstat_theta_min            =   2.8387488592375E+02
(PID.TID 0000.0001) %MON dynstat_theta_mean           =   3.3168751465702E+02
(PID.TID 0000.0001) %MON dynstat_theta_sd             =   4.7450919811935E+01
(PID.TID 0000.0001) %MON dynstat_theta_del2           =   2.2704723059475E-03
(PID.TID 0000.0001) %MON dynstat_salt_max             =   4.4480873573015E+00
(PID.TID 0000.0001) %MON dynstat_salt_min             =  -9.8099531072855E-03
(PID.TID 0000.0001) %MON dynstat_salt_mean            =   8.7072092827329E-02
(PID.TID 0000.0001) %MON dynstat_salt_sd              =   3.4609351332360E-01
(PID.TID 0000.0001) %MON dynstat_salt_del2            =   1.0672135370410E-03
(PID.TID 0000.0001) %MON trAdv_CFL_u_max              =   9.9463749044747E-03
(PID.TID 0000.0001) %MON trAdv_CFL_v_max              =   1.0171977929929E-02
(PID.TID 0000.0001) %MON trAdv_CFL_w_max              =   7.5783161986405E-03
(PID.TID 0000.0001) %MON advcfl_uvel_max              =   1.0009812527092E-02
(PID.TID 0000.0001) %MON advcfl_vvel_max              =   1.0218841050958E-02
(PID.TID 0000.0001) %MON advcfl_wvel_max              =   5.2518851440592E-03
(PID.TID 0000.0001) %MON advcfl_W_hf_max              =   7.5783161986405E-03
(PID.TID 0000.0001) %MON am_eta_mean                  =  -1.0310760243984E+10
(PID.TID 0000.0001) %MON am_uZo_mean                  =   1.0181456360622E+10
(PID.TID 0000.0001) %MON am_tot_mean                  =  -1.2930388336211E+08
(PID.TID 0000.0001) %MON pe_b_mean                    =  -9.0985700596584E-01
(PID.TID 0000.0001) %MON ke_max                       =   3.0714983868372E+01
(PID.TID 0000.0001) %MON ke_mean                      =   6.7301109378200E-01
(PID.TID 0000.0001) %MON ke_vol                       =   4.9523908919847E+19
(PID.TID 0000.0001) %MON vort_r_min                   =  -2.5405846332562E-05
(PID.TID 0000.0001) %MON vort_r_max                   =   1.7724016957096E-05
(PID.TID 0000.0001) %MON vort_a_mean                  =   6.7242814765306E-08
(PID.TID 0000.0001) %MON vort_a_sd                    =   8.3990694764143E-05
(PID.TID 0000.0001) %MON vort_p_mean                  =   6.8939466004177E-08
(PID.TID 0000.0001) %MON vort_p_sd                    =   9.2001622355188E-05
(PID.TID 0000.0001) %MON surfExpan_theta_mean         =  -4.0291760773376E-02
(PID.TID 0000.0001) %MON surfExpan_salt_mean          =  -9.0256128931139E-04
(PID.TID 0000.0001) %MON surfExpan_Heat_mean          =   3.6422935800174E+00
(PID.TID 0000.0001) %MON En_Budget_T2PE_mean          =  -6.6879126351127E+00
(PID.TID 0000.0001) // =======================================================
(PID.TID 0000.0001) // End MONITOR dynamic field statistics
(PID.TID 0000.0001) // =======================================================
(PID.TID 0000.0001) // =======================================================
(PID.TID 0000.0001) // Begin MONITOR Land statistics
(PID.TID 0000.0001) // =======================================================
(PID.TID 0000.0001) %MON land_time_sec                =   1.0800000000000E+04
(PID.TID 0000.0001) %MON land_SnwH_ave_G              =   1.5322440116155E-01
(PID.TID 0000.0001) %MON land_SnwH_ave_S              =   5.5904077614681E-01
(PID.TID 0000.0001) %MON land_SnwH_ave_T              =   0.0000000000000E+00
(PID.TID 0000.0001) %MON land_SnwH_ave_N              =   1.2389879063760E-01
(PID.TID 0000.0001) %MON land_SnwH_max_S              =   9.9998491379519E-01
(PID.TID 0000.0001) %MON land_SnwH_max_T              =   0.0000000000000E+00
(PID.TID 0000.0001) %MON land_SnwH_max_N              =   9.9999802360994E-01
(PID.TID 0000.0001) %MON land_Tsrf_ave_G              =  -8.2556339060987E+00
(PID.TID 0000.0001) %MON land_Tsrf_ave_S              =  -6.8088710704052E+00
(PID.TID 0000.0001) %MON land_Tsrf_ave_T              =   1.0359246455152E+01
(PID.TID 0000.0001) %MON land_Tsrf_ave_N              =  -2.1155424605711E+01
(PID.TID 0000.0001) %MON land_Tsrf_min_S              =  -3.1883236821063E+01
(PID.TID 0000.0001) %MON land_Tsrf_min_T              =  -3.7627432254797E+00
(PID.TID 0000.0001) %MON land_Tsrf_min_N              =  -5.0183423815536E+01
(PID.TID 0000.0001) %MON land_Tsrf_max_S              =   2.0465109839303E+01
(PID.TID 0000.0001) %MON land_Tsrf_max_T              =   2.0706192007712E+01
(PID.TID 0000.0001) %MON land_Tsrf_max_N              =   8.6004685671518E+00
(PID.TID 0000.0001) %MON land_Tgr1_ave_G              =  -7.1335523519401E+00
(PID.TID 0000.0001) %MON land_Tgr1_ave_S              =  -7.1324982138623E+00
(PID.TID 0000.0001) %MON land_Tgr1_ave_T              =   1.0359246455152E+01
(PID.TID 0000.0001) %MON land_Tgr1_ave_N              =  -1.8815070896875E+01
(PID.TID 0000.0001) %MON land_Tgr1_min_S              =  -3.9229745927028E+01
(PID.TID 0000.0001) %MON land_Tgr1_min_T              =  -3.7627432254797E+00
(PID.TID 0000.0001) %MON land_Tgr1_min_N              =  -5.4666404828755E+01
(PID.TID 0000.0001) %MON land_Tgr1_max_S              =   2.0465109839303E+01
(PID.TID 0000.0001) %MON land_Tgr1_max_T              =   2.0706192007712E+01
(PID.TID 0000.0001) %MON land_Tgr1_max_N              =   8.6004685671518E+00
(PID.TID 0000.0001) %MON land_Tgr2_ave_G              =   4.2039130677021E+00
(PID.TID 0000.0001) %MON land_Tgr2_ave_S              =  -1.8726843132015E+01
(PID.TID 0000.0001) %MON land_Tgr2_ave_T              =   2.2009613877970E+01
(PID.TID 0000.0001) %MON land_Tgr2_ave_N              =  -2.4761268480442E-01
(PID.TID 0000.0001) %MON land_Tgr2_min_S              =  -6.4751920377333E+01
(PID.TID 0000.0001) %MON land_Tgr2_min_T              =  -9.7038366355369E+00
(PID.TID 0000.0001) %MON land_Tgr2_min_N              =  -4.0199341929182E+01
(PID.TID 0000.0001) %MON land_Tgr2_max_S              =   2.3360087912596E+01
(PID.TID 0000.0001) %MON land_Tgr2_max_T              =   3.1352207242691E+01
(PID.TID 0000.0001) %MON land_Tgr2_max_N              =   2.9822171775886E+01
(PID.TID 0000.0001) %MON land_TotEnerg_G              =  -6.3501365078409E+21
(PID.TID 0000.0001) %MON land_TotEnerg_S              =  -5.0021349567658E+21
(PID.TID 0000.0001) %MON land_TotEnerg_T              =   7.2783024933454E+21
(PID.TID 0000.0001) %MON land_TotEnerg_N              =  -8.6263040444205E+21
(PID.TID 0000.0001) %MON land_grdW_ave_G              =   4.8676660266643E-01
(PID.TID 0000.0001) %MON land_grdW_ave_S              =   3.0853255810989E-01
(PID.TID 0000.0001) %MON land_grdW_ave_T              =   5.6420351791154E-01
(PID.TID 0000.0001) %MON land_grdW_ave_N              =   4.9287454610346E-01
(PID.TID 0000.0001) %MON land_grdW_min_S              =   2.7424703045590E-02
(PID.TID 0000.0001) %MON land_grdW_min_T              =   0.0000000000000E+00
(PID.TID 0000.0001) %MON land_grdW_min_N              =   0.0000000000000E+00
(PID.TID 0000.0001) // =======================================================
(PID.TID 0000.0001) // End MONITOR Land statistics
(PID.TID 0000.0001) // =======================================================
(PID.TID 0000.0001) // =======================================================
(PID.TID 0000.0001) // Begin MONITOR Therm.SeaIce statistics
(PID.TID 0000.0001) // =======================================================
(PID.TID 0000.0001) %MON thSI_time_sec                =   1.0800000000000E+04
(PID.TID 0000.0001) %MON thSI_Ice_Area_G              =   2.1470477499562E+11
(PID.TID 0000.0001) %MON thSI_Ice_Area_S              =   0.0000000000000E+00
(PID.TID 0000.0001) %MON thSI_Ice_Area_N              =   2.1470477499562E+11
(PID.TID 0000.0001) %MON thSI_IceH_ave_G              =   1.1833523668540E-01
(PID.TID 0000.0001) %MON thSI_IceH_ave_S              =   0.0000000000000E+00
(PID.TID 0000.0001) %MON thSI_IceH_ave_N              =   1.1833523668540E-01
(PID.TID 0000.0001) %MON thSI_IceH_max_S              =   0.0000000000000E+00
(PID.TID 0000.0001) %MON thSI_IceH_max_N              =   1.4629466117080E-01
(PID.TID 0000.0001) %MON thSI_SnwH_ave_G              =   0.0000000000000E+00
(PID.TID 0000.0001) %MON thSI_SnwH_ave_S              =   0.0000000000000E+00
(PID.TID 0000.0001) %MON thSI_SnwH_ave_N              =   0.0000000000000E+00
(PID.TID 0000.0001) %MON thSI_SnwH_max_S              =   0.0000000000000E+00
(PID.TID 0000.0001) %MON thSI_SnwH_max_N              =   0.0000000000000E+00
(PID.TID 0000.0001) %MON thSI_Tsrf_ave_G              =  -8.0728313235996E+00
(PID.TID 0000.0001) %MON thSI_Tsrf_ave_S              =   0.0000000000000E+00
(PID.TID 0000.0001) %MON thSI_Tsrf_ave_N              =  -8.0728313235996E+00
(PID.TID 0000.0001) %MON thSI_Tsrf_min_S              =   0.0000000000000E+00
(PID.TID 0000.0001) %MON thSI_Tsrf_min_N              =  -9.0285480195032E+00
(PID.TID 0000.0001) %MON thSI_Tsrf_max_S              =   0.0000000000000E+00
(PID.TID 0000.0001) %MON thSI_Tsrf_max_N              =  -3.8268930589572E+00
(PID.TID 0000.0001) %MON thSI_Tic1_ave_G              =  -6.4264929667182E+00
(PID.TID 0000.0001) %MON thSI_Tic1_ave_S              =   0.0000000000000E+00
(PID.TID 0000.0001) %MON thSI_Tic1_ave_N              =  -6.4264929667182E+00
(PID.TID 0000.0001) %MON thSI_Tic1_min_S              =   0.0000000000000E+00
(PID.TID 0000.0001) %MON thSI_Tic1_min_N              =  -6.6175395766629E+00
(PID.TID 0000.0001) %MON thSI_Tic1_max_S              =   0.0000000000000E+00
(PID.TID 0000.0001) %MON thSI_Tic1_max_N              =  -3.2894563939094E+00
(PID.TID 0000.0001) %MON thSI_Tic2_ave_G              =  -3.0934119478122E+00
(PID.TID 0000.0001) %MON thSI_Tic2_ave_S              =   0.0000000000000E+00
(PID.TID 0000.0001) %MON thSI_Tic2_ave_N              =  -3.0934119478122E+00
(PID.TID 0000.0001) %MON thSI_Tic2_min_S              =   0.0000000000000E+00
(PID.TID 0000.0001) %MON thSI_Tic2_min_N              =  -3.1990287126931E+00
(PID.TID 0000.0001) %MON thSI_Tic2_max_S              =   0.0000000000000E+00
(PID.TID 0000.0001) %MON thSI_Tic2_max_N              =  -2.2169212993453E+00
(PID.TID 0000.0001) %MON thSI_TotEnerg_G              =  -7.8348297436912E+18
(PID.TID 0000.0001) // =======================================================
(PID.TID 0000.0001) // End MONITOR Therm.SeaIce statistics
(PID.TID 0000.0001) // =======================================================
(PID.TID 0000.0001)   Exporting atmospheric surf fluxes at iter=        24
(PID.TID 0000.0001)   Importing  oceanic surface fields at iter=        24
 cg2d: Sum(rhs),rhsMax =   9.89530235528946E-10  2.06089620906928E+04
(PID.TID 0000.0001)      cg2d_init_res =   1.08706007647876E+04
(PID.TID 0000.0001)      cg2d_iters(min,last) =      -1      16
(PID.TID 0000.0001)      cg2d_last_res =   8.64755939686449E-11
(PID.TID 0000.0001) // =======================================================
(PID.TID 0000.0001) // Begin MONITOR dynamic field statistics
(PID.TID 0000.0001) // =======================================================
(PID.TID 0000.0001) %MON time_tsnumber                =                    25
(PID.TID 0000.0001) %MON time_secondsf                =   1.1250000000000E+04
(PID.TID 0000.0001) %MON dynstat_eta_max              =   3.5969380498757E+03
(PID.TID 0000.0001) %MON dynstat_eta_min              =  -7.4528429921951E+02
(PID.TID 0000.0001) %MON dynstat_eta_mean             =   6.7476182680265E-14
(PID.TID 0000.0001) %MON dynstat_eta_sd               =   4.9432631672853E+02
(PID.TID 0000.0001) %MON dynstat_eta_del2             =   4.2794505014408E+00
(PID.TID 0000.0001) %MON dynstat_uvel_max             =   7.0539963037428E+00
(PID.TID 0000.0001) %MON dynstat_uvel_min             =  -5.8566815817708E+00
(PID.TID 0000.0001) %MON dynstat_uvel_mean            =   1.5187672361224E-02
(PID.TID 0000.0001) %MON dynstat_uvel_sd              =   8.1777574000965E-01
(PID.TID 0000.0001) %MON dynstat_uvel_del2            =   1.4022789481836E-03
(PID.TID 0000.0001) %MON dynstat_vvel_max             =   6.5476444889745E+00
(PID.TID 0000.0001) %MON dynstat_vvel_min             =  -7.5067659309724E+00
(PID.TID 0000.0001) %MON dynstat_vvel_mean            =   2.3718868397486E-02
(PID.TID 0000.0001) %MON dynstat_vvel_sd              =   8.2909304370612E-01
(PID.TID 0000.0001) %MON dynstat_vvel_del2            =   1.4612133299952E-03
(PID.TID 0000.0001) %MON dynstat_wvel_max             =   2.1953051867753E-01
(PID.TID 0000.0001) %MON dynstat_wvel_min             =  -2.1273717149108E-01
(PID.TID 0000.0001) %MON dynstat_wvel_mean            =   4.8109601771305E-04
(PID.TID 0000.0001) %MON dynstat_wvel_sd              =   1.5605301788286E-02
(PID.TID 0000.0001) %MON dynstat_wvel_del2            =   1.5302713032310E-04
(PID.TID 0000.0001) %MON dynstat_theta_max            =   4.4044799199587E+02
(PID.TID 0000.0001) %MON dynstat_theta_min            =   2.8365495950309E+02
(PID.TID 0000.0001) %MON dynstat_theta_mean           =   3.3168548914052E+02
(PID.TID 0000.0001) %MON dynstat_theta_sd             =   4.7452935961758E+01
(PID.TID 0000.0001) %MON dynstat_theta_del2           =   2.3085559068606E-03
(PID.TID 0000.0001) %MON dynstat_salt_max             =   4.5029878696681E+00
(PID.TID 0000.0001) %MON dynstat_salt_min             =  -1.1665866909856E-02
(PID.TID 0000.0001) %MON dynstat_salt_mean            =   9.0450940898251E-02
(PID.TID 0000.0001) %MON dynstat_salt_sd              =   3.5812505950198E-01
(PID.TID 0000.0001) %MON dynstat_salt_del2            =   1.0939491760838E-03
(PID.TID 0000.0001) %MON trAdv_CFL_u_max              =   9.9540995363148E-03
(PID.TID 0000.0001) %MON trAdv_CFL_v_max              =   1.0521529056405E-02
(PID.TID 0000.0001) %MON trAdv_CFL_w_max              =   7.1842460306183E-03
(PID.TID 0000.0001) %MON advcfl_uvel_max              =   1.0017244066221E-02
(PID.TID 0000.0001) %MON advcfl_vvel_max              =   1.0586920907371E-02
(PID.TID 0000.0001) %MON advcfl_wvel_max              =   4.9015262671601E-03
(PID.TID 0000.0001) %MON advcfl_W_hf_max              =   7.1842460306183E-03
(PID.TID 0000.0001) %MON am_eta_mean                  =  -1.0966727133341E+10
(PID.TID 0000.0001) %MON am_uZo_mean                  =   1.0828430564224E+10
(PID.TID 0000.0001) %MON am_tot_mean                  =  -1.3829656911707E+08
(PID.TID 0000.0001) %MON pe_b_mean                    =  -9.2082295876028E-01
(PID.TID 0000.0001) %MON ke_max                       =   2.9922980568409E+01
(PID.TID 0000.0001) %MON ke_mean                      =   6.7444775843322E-01
(PID.TID 0000.0001) %MON ke_vol                       =   4.9523908919847E+19
(PID.TID 0000.0001) %MON vort_r_min                   =  -2.4798168785161E-05
(PID.TID 0000.0001) %MON vort_r_max                   =   1.7937035081050E-05
(PID.TID 0000.0001) %MON vort_a_mean                  =   6.7242814765343E-08
(PID.TID 0000.0001) %MON vort_a_sd                    =   8.3993305907627E-05
(PID.TID 0000.0001) %MON vort_p_mean                  =   6.8939467188823E-08
(PID.TID 0000.0001) %MON vort_p_sd                    =   9.1993503720955E-05
(PID.TID 0000.0001) %MON surfExpan_theta_mean         =  -4.4952519845813E-02
(PID.TID 0000.0001) %MON surfExpan_salt_mean          =  -9.9944525775626E-04
(PID.TID 0000.0001) %MON surfExpan_Heat_mean          =   4.0630785291662E+00
(PID.TID 0000.0001) %MON En_Budget_T2PE_mean          =  -7.4517748232647E+00
(PID.TID 0000.0001) // =======================================================
(PID.TID 0000.0001) // End MONITOR dynamic field statistics
(PID.TID 0000.0001) // =======================================================
(PID.TID 0000.0001) // =======================================================
(PID.TID 0000.0001) // Begin MONITOR Land statistics
(PID.TID 0000.0001) // =======================================================
(PID.TID 0000.0001) %MON land_time_sec                =   1.1250000000000E+04
(PID.TID 0000.0001) %MON land_SnwH_ave_G              =   1.5322343099304E-01
(PID.TID 0000.0001) %MON land_SnwH_ave_S              =   5.5903981991897E-01
(PID.TID 0000.0001) %MON land_SnwH_ave_T              =   0.0000000000000E+00
(PID.TID 0000.0001) %MON land_SnwH_ave_N              =   1.2389716809683E-01
(PID.TID 0000.0001) %MON land_SnwH_max_S              =   9.9998425106322E-01
(PID.TID 0000.0001) %MON land_SnwH_max_T              =   0.0000000000000E+00
(PID.TID 0000.0001) %MON land_SnwH_max_N              =   9.9999794251375E-01
(PID.TID 0000.0001) %MON land_Tsrf_ave_G              =  -8.2954666989115E+00
(PID.TID 0000.0001) %MON land_Tsrf_ave_S              =  -6.8197185137308E+00
(PID.TID 0000.0001) %MON land_Tsrf_ave_T              =   1.0270852139226E+01
(PID.TID 0000.0001) %MON land_Tsrf_ave_N              =  -2.1172232112322E+01
(PID.TID 0000.0001) %MON land_Tsrf_min_S              =  -3.1939495285222E+01
(PID.TID 0000.0001) %MON land_Tsrf_min_T              =  -3.6491039242785E+00
(PID.TID 0000.0001) %MON land_Tsrf_min_N              =  -5.0230783494092E+01
(PID.TID 0000.0001) %MON land_Tsrf_max_S              =   2.0370237438322E+01
(PID.TID 0000.0001) %MON land_Tsrf_max_T              =   2.0552645349373E+01
(PID.TID 0000.0001) %MON land_Tsrf_max_N              =   8.4742901182411E+00
(PID.TID 0000.0001) %MON land_Tgr1_ave_G              =  -7.1793904760055E+00
(PID.TID 0000.0001) %MON land_Tgr1_ave_S              =  -7.1590263874058E+00
(PID.TID 0000.0001) %MON land_Tgr1_ave_T              =   1.0270852139226E+01
(PID.TID 0000.0001) %MON land_Tgr1_ave_N              =  -1.8838755277863E+01
(PID.TID 0000.0001) %MON land_Tgr1_min_S              =  -3.9239016745224E+01
(PID.TID 0000.0001) %MON land_Tgr1_min_T              =  -3.6491039242785E+00
(PID.TID 0000.0001) %MON land_Tgr1_min_N              =  -5.4652021245331E+01
(PID.TID 0000.0001) %MON land_Tgr1_max_S              =   2.0370237438322E+01
(PID.TID 0000.0001) %MON land_Tgr1_max_T              =   2.0552645349373E+01
(PID.TID 0000.0001) %MON land_Tgr1_max_N              =   8.4742901182411E+00
(PID.TID 0000.0001) %MON land_Tgr2_ave_G              =   4.2037385283897E+00
(PID.TID 0000.0001) %MON land_Tgr2_ave_S              =  -1.8726649243690E+01
(PID.TID 0000.0001) %MON land_Tgr2_ave_T              =   2.2009424066276E+01
(PID.TID 0000.0001) %MON land_Tgr2_ave_N              =  -2.4789654134973E-01
(PID.TID 0000.0001) %MON land_Tgr2_min_S              =  -6.4751490332945E+01
(PID.TID 0000.0001) %MON land_Tgr2_min_T              =  -9.7037601338023E+00
(PID.TID 0000.0001) %MON land_Tgr2_min_N              =  -4.0199577202544E+01
(PID.TID 0000.0001) %MON land_Tgr2_max_S              =   2.3360023824839E+01
(PID.TID 0000.0001) %MON land_Tgr2_max_T              =   3.1351776634562E+01
(PID.TID 0000.0001) %MON land_Tgr2_max_N              =   2.9821645211205E+01
(PID.TID 0000.0001) %MON land_TotEnerg_G              =  -6.3515920427773E+21
(PID.TID 0000.0001) %MON land_TotEnerg_S              =  -5.0022041371484E+21
(PID.TID 0000.0001) %MON land_TotEnerg_T              =   7.2775174062317E+21
(PID.TID 0000.0001) %MON land_TotEnerg_N              =  -8.6269053118606E+21
(PID.TID 0000.0001) %MON land_grdW_ave_G              =   4.8675883575097E-01
(PID.TID 0000.0001) %MON land_grdW_ave_S              =   3.0852480472040E-01
(PID.TID 0000.0001) %MON land_grdW_ave_T              =   5.6418454917388E-01
(PID.TID 0000.0001) %MON land_grdW_ave_N              =   4.9287425504768E-01
(PID.TID 0000.0001) %MON land_grdW_min_S              =   2.7512051608034E-02
(PID.TID 0000.0001) %MON land_grdW_min_T              =   0.0000000000000E+00
(PID.TID 0000.0001) %MON land_grdW_min_N              =   0.0000000000000E+00
(PID.TID 0000.0001) // =======================================================
(PID.TID 0000.0001) // End MONITOR Land statistics
(PID.TID 0000.0001) // =======================================================
(PID.TID 0000.0001) // =======================================================
(PID.TID 0000.0001) // Begin MONITOR Therm.SeaIce statistics
(PID.TID 0000.0001) // =======================================================
(PID.TID 0000.0001) %MON thSI_time_sec                =   1.1250000000000E+04
(PID.TID 0000.0001) %MON thSI_Ice_Area_G              =   2.1745885857578E+11
(PID.TID 0000.0001) %MON thSI_Ice_Area_S              =   0.0000000000000E+00
(PID.TID 0000.0001) %MON thSI_Ice_Area_N              =   2.1745885857578E+11
(PID.TID 0000.0001) %MON thSI_IceH_ave_G              =   1.1736932123766E-01
(PID.TID 0000.0001) %MON thSI_IceH_ave_S              =   0.0000000000000E+00
(PID.TID 0000.0001) %MON thSI_IceH_ave_N              =   1.1736932123766E-01
(PID.TID 0000.0001) %MON thSI_IceH_max_S              =   0.0000000000000E+00
(PID.TID 0000.0001) %MON thSI_IceH_max_N              =   1.4640982591934E-01
(PID.TID 0000.0001) %MON thSI_SnwH_ave_G              =   0.0000000000000E+00
(PID.TID 0000.0001) %MON thSI_SnwH_ave_S              =   0.0000000000000E+00
(PID.TID 0000.0001) %MON thSI_SnwH_ave_N              =   0.0000000000000E+00
(PID.TID 0000.0001) %MON thSI_SnwH_max_S              =   0.0000000000000E+00
(PID.TID 0000.0001) %MON thSI_SnwH_max_N              =   0.0000000000000E+00
(PID.TID 0000.0001) %MON thSI_Tsrf_ave_G              =  -8.0755981810937E+00
(PID.TID 0000.0001) %MON thSI_Tsrf_ave_S              =   0.0000000000000E+00
(PID.TID 0000.0001) %MON thSI_Tsrf_ave_N              =  -8.0755981810937E+00
(PID.TID 0000.0001) %MON thSI_Tsrf_min_S              =   0.0000000000000E+00
(PID.TID 0000.0001) %MON thSI_Tsrf_min_N              =  -9.1068204897363E+00
(PID.TID 0000.0001) %MON thSI_Tsrf_max_S              =   0.0000000000000E+00
(PID.TID 0000.0001) %MON thSI_Tsrf_max_N              =  -1.6174462041349E+00
(PID.TID 0000.0001) %MON thSI_Tic1_ave_G              =  -6.5028886891249E+00
(PID.TID 0000.0001) %MON thSI_Tic1_ave_S              =   0.0000000000000E+00
(PID.TID 0000.0001) %MON thSI_Tic1_ave_N              =  -6.5028886891249E+00
(PID.TID 0000.0001) %MON thSI_Tic1_min_S              =   0.0000000000000E+00
(PID.TID 0000.0001) %MON thSI_Tic1_min_N              =  -6.7120056718827E+00
(PID.TID 0000.0001) %MON thSI_Tic1_max_S              =   0.0000000000000E+00
(PID.TID 0000.0001) %MON thSI_Tic1_max_N              =  -1.6174462041349E+00
(PID.TID 0000.0001) %MON thSI_Tic2_ave_G              =  -3.1281227721464E+00
(PID.TID 0000.0001) %MON thSI_Tic2_ave_S              =   0.0000000000000E+00
(PID.TID 0000.0001) %MON thSI_Tic2_ave_N              =  -3.1281227721464E+00
(PID.TID 0000.0001) %MON thSI_Tic2_min_S              =   0.0000000000000E+00
(PID.TID 0000.0001) %MON thSI_Tic2_min_N              =  -3.2345416444384E+00
(PID.TID 0000.0001) %MON thSI_Tic2_max_S              =   0.0000000000000E+00
(PID.TID 0000.0001) %MON thSI_Tic2_max_N              =  -1.6174462041349E+00
(PID.TID 0000.0001) %MON thSI_TotEnerg_G              =  -7.8737516207571E+18
(PID.TID 0000.0001) // =======================================================
(PID.TID 0000.0001) // End MONITOR Therm.SeaIce statistics
(PID.TID 0000.0001) // =======================================================
 cg2d: Sum(rhs),rhsMax =  -9.89530235528946E-10  1.98042145813068E+04
(PID.TID 0000.0001)      cg2d_init_res =   1.07736278119214E+04
(PID.TID 0000.0001)      cg2d_iters(min,last) =      -1      16
(PID.TID 0000.0001)      cg2d_last_res =   8.77964467610925E-11
(PID.TID 0000.0001) // =======================================================
(PID.TID 0000.0001) // Begin MONITOR dynamic field statistics
(PID.TID 0000.0001) // =======================================================
(PID.TID 0000.0001) %MON time_tsnumber                =                    26
(PID.TID 0000.0001) %MON time_secondsf                =   1.1700000000000E+04
(PID.TID 0000.0001) %MON dynstat_eta_max              =   3.5313530883387E+03
(PID.TID 0000.0001) %MON dynstat_eta_min              =  -7.4248683818289E+02
(PID.TID 0000.0001) %MON dynstat_eta_mean             =  -9.6394546686094E-15
(PID.TID 0000.0001) %MON dynstat_eta_sd               =   4.8443720060248E+02
(PID.TID 0000.0001) %MON dynstat_eta_del2             =   4.2746436737342E+00
(PID.TID 0000.0001) %MON dynstat_uvel_max             =   7.0217792830966E+00
(PID.TID 0000.0001) %MON dynstat_uvel_min             =  -5.9918203106839E+00
(PID.TID 0000.0001) %MON dynstat_uvel_mean            =   2.0778190076290E-02
(PID.TID 0000.0001) %MON dynstat_uvel_sd              =   8.1303935045728E-01
(PID.TID 0000.0001) %MON dynstat_uvel_del2            =   1.4198275238212E-03
(PID.TID 0000.0001) %MON dynstat_vvel_max             =   6.3933085532408E+00
(PID.TID 0000.0001) %MON dynstat_vvel_min             =  -7.6096803371224E+00
(PID.TID 0000.0001) %MON dynstat_vvel_mean            =   2.2666083710363E-02
(PID.TID 0000.0001) %MON dynstat_vvel_sd              =   8.3306920562749E-01
(PID.TID 0000.0001) %MON dynstat_vvel_del2            =   1.4827464258361E-03
(PID.TID 0000.0001) %MON dynstat_wvel_max             =   2.3435133741199E-01
(PID.TID 0000.0001) %MON dynstat_wvel_min             =  -2.1107087258269E-01
(PID.TID 0000.0001) %MON dynstat_wvel_mean            =   5.1352860374358E-04
(PID.TID 0000.0001) %MON dynstat_wvel_sd              =   1.5680067893092E-02
(PID.TID 0000.0001) %MON dynstat_wvel_del2            =   1.5365173575987E-04
(PID.TID 0000.0001) %MON dynstat_theta_max            =   4.4032790698567E+02
(PID.TID 0000.0001) %MON dynstat_theta_min            =   2.8343630752413E+02
(PID.TID 0000.0001) %MON dynstat_theta_mean           =   3.3168342676728E+02
(PID.TID 0000.0001) %MON dynstat_theta_sd             =   4.7454959864224E+01
(PID.TID 0000.0001) %MON dynstat_theta_del2           =   2.3546754204771E-03
(PID.TID 0000.0001) %MON dynstat_salt_max             =   4.5547463519976E+00
(PID.TID 0000.0001) %MON dynstat_salt_min             =  -1.3586929320219E-02
(PID.TID 0000.0001) %MON dynstat_salt_mean            =   9.3818028771740E-02
(PID.TID 0000.0001) %MON dynstat_salt_sd              =   3.7004475972231E-01
(PID.TID 0000.0001) %MON dynstat_salt_del2            =   1.1206910382477E-03
(PID.TID 0000.0001) %MON trAdv_CFL_u_max              =   9.9091667428612E-03
(PID.TID 0000.0001) %MON trAdv_CFL_v_max              =   1.0668239863121E-02
(PID.TID 0000.0001) %MON trAdv_CFL_w_max              =   6.8268173207509E-03
(PID.TID 0000.0001) %MON advcfl_uvel_max              =   9.9714932967273E-03
(PID.TID 0000.0001) %MON advcfl_vvel_max              =   1.0732062861730E-02
(PID.TID 0000.0001) %MON advcfl_wvel_max              =   4.6476385579851E-03
(PID.TID 0000.0001) %MON advcfl_W_hf_max              =   6.8268173207509E-03
(PID.TID 0000.0001) %MON am_eta_mean                  =  -1.1614144346924E+10
(PID.TID 0000.0001) %MON am_uZo_mean                  =   1.1466836602175E+10
(PID.TID 0000.0001) %MON am_tot_mean                  =  -1.4730774474884E+08
(PID.TID 0000.0001) %MON pe_b_mean                    =  -9.3010018855001E-01
(PID.TID 0000.0001) %MON ke_max                       =   2.8611292886584E+01
(PID.TID 0000.0001) %MON ke_mean                      =   6.7396604762424E-01
(PID.TID 0000.0001) %MON ke_vol                       =   4.9523908919847E+19
(PID.TID 0000.0001) %MON vort_r_min                   =  -2.4280611242936E-05
(PID.TID 0000.0001) %MON vort_r_max                   =   1.8097759773137E-05
(PID.TID 0000.0001) %MON vort_a_mean                  =   6.7242814765326E-08
(PID.TID 0000.0001) %MON vort_a_sd                    =   8.3995863060793E-05
(PID.TID 0000.0001) %MON vort_p_mean                  =   6.8939468555134E-08
(PID.TID 0000.0001) %MON vort_p_sd                    =   9.1984871335042E-05
(PID.TID 0000.0001) %MON surfExpan_theta_mean         =  -4.7792394339788E-02
(PID.TID 0000.0001) %MON surfExpan_salt_mean          =  -1.0970429792174E-03
(PID.TID 0000.0001) %MON surfExpan_Heat_mean          =   4.3114402790668E+00
(PID.TID 0000.0001) %MON En_Budget_T2PE_mean          =  -7.9086897804015E+00
(PID.TID 0000.0001) // =======================================================
(PID.TID 0000.0001) // End MONITOR dynamic field statistics
(PID.TID 0000.0001) // =======================================================
(PID.TID 0000.0001) // =======================================================
(PID.TID 0000.0001) // Begin MONITOR Land statistics
(PID.TID 0000.0001) // =======================================================
(PID.TID 0000.0001) %MON land_time_sec                =   1.1700000000000E+04
(PID.TID 0000.0001) %MON land_SnwH_ave_G              =   1.5322246274171E-01
(PID.TID 0000.0001) %MON land_SnwH_ave_S              =   5.5903886404224E-01
(PID.TID 0000.0001) %MON land_SnwH_ave_T              =   0.0000000000000E+00
(PID.TID 0000.0001) %MON land_SnwH_ave_N              =   1.2389554926150E-01
(PID.TID 0000.0001) %MON land_SnwH_max_S              =   9.9998359088510E-01
(PID.TID 0000.0001) %MON land_SnwH_max_T              =   0.0000000000000E+00
(PID.TID 0000.0001) %MON land_SnwH_max_N              =   9.9999786131644E-01
(PID.TID 0000.0001) %MON land_Tsrf_ave_G              =  -8.3319001921109E+00
(PID.TID 0000.0001) %MON land_Tsrf_ave_S              =  -6.8296729716204E+00
(PID.TID 0000.0001) %MON land_Tsrf_ave_T              =   1.0189885463937E+01
(PID.TID 0000.0001) %MON land_Tsrf_ave_N              =  -2.1187517293935E+01
(PID.TID 0000.0001) %MON land_Tsrf_min_S              =  -3.1975903018118E+01
(PID.TID 0000.0001) %MON land_Tsrf_min_T              =  -3.5390710731244E+00
(PID.TID 0000.0001) %MON land_Tsrf_min_N              =  -5.0271507179117E+01
(PID.TID 0000.0001) %MON land_Tsrf_max_S              =   2.0285862789778E+01
(PID.TID 0000.0001) %MON land_Tsrf_max_T              =   2.0415026017428E+01
(PID.TID 0000.0001) %MON land_Tsrf_max_N              =   8.3557128969408E+00
(PID.TID 0000.0001) %MON land_Tgr1_ave_G              =  -7.2214556651997E+00
(PID.TID 0000.0001) %MON land_Tgr1_ave_S              =  -7.1825031589604E+00
(PID.TID 0000.0001) %MON land_Tgr1_ave_T              =   1.0189885463937E+01
(PID.TID 0000.0001) %MON land_Tgr1_ave_N              =  -1.8860873168138E+01
(PID.TID 0000.0001) %MON land_Tgr1_min_S              =  -3.9248296414960E+01
(PID.TID 0000.0001) %MON land_Tgr1_min_T              =  -3.5390710731244E+00
(PID.TID 0000.0001) %MON land_Tgr1_min_N              =  -5.4637661472350E+01
(PID.TID 0000.0001) %MON land_Tgr1_max_S              =   2.0285862789778E+01
(PID.TID 0000.0001) %MON land_Tgr1_max_T              =   2.0415026017428E+01
(PID.TID 0000.0001) %MON land_Tgr1_max_N              =   8.3557128969408E+00
(PID.TID 0000.0001) %MON land_Tgr2_ave_G              =   4.2035633694402E+00
(PID.TID 0000.0001) %MON land_Tgr2_ave_S              =  -1.8726455729783E+01
(PID.TID 0000.0001) %MON land_Tgr2_ave_T              =   2.2009233088800E+01
(PID.TID 0000.0001) %MON land_Tgr2_ave_N              =  -2.4818073238096E-01
(PID.TID 0000.0001) %MON land_Tgr2_min_S              =  -6.4751060468934E+01
(PID.TID 0000.0001) %MON land_Tgr2_min_T              =  -9.7036822429973E+00
(PID.TID 0000.0001) %MON land_Tgr2_min_N              =  -4.0199812230314E+01
(PID.TID 0000.0001) %MON land_Tgr2_max_S              =   2.3359957950718E+01
(PID.TID 0000.0001) %MON land_Tgr2_max_T              =   3.1351343371676E+01
(PID.TID 0000.0001) %MON land_Tgr2_max_N              =   2.9821113823302E+01
(PID.TID 0000.0001) %MON land_TotEnerg_G              =  -6.3529632816509E+21
(PID.TID 0000.0001) %MON land_TotEnerg_S              =  -5.0022627574832E+21
(PID.TID 0000.0001) %MON land_TotEnerg_T              =   7.2767945718160E+21
(PID.TID 0000.0001) %MON land_TotEnerg_N              =  -8.6274950959837E+21
(PID.TID 0000.0001) %MON land_grdW_ave_G              =   4.8675117741227E-01
(PID.TID 0000.0001) %MON land_grdW_ave_S              =   3.0851712091623E-01
(PID.TID 0000.0001) %MON land_grdW_ave_T              =   5.6416586834945E-01
(PID.TID 0000.0001) %MON land_grdW_ave_N              =   4.9287396546162E-01
(PID.TID 0000.0001) %MON land_grdW_min_S              =   2.7599441629855E-02
(PID.TID 0000.0001) %MON land_grdW_min_T              =   0.0000000000000E+00
(PID.TID 0000.0001) %MON land_grdW_min_N              =   0.0000000000000E+00
(PID.TID 0000.0001) // =======================================================
(PID.TID 0000.0001) // End MONITOR Land statistics
(PID.TID 0000.0001) // =======================================================
(PID.TID 0000.0001) // =======================================================
(PID.TID 0000.0001) // Begin MONITOR Therm.SeaIce statistics
(PID.TID 0000.0001) // =======================================================
(PID.TID 0000.0001) %MON thSI_time_sec                =   1.1700000000000E+04
(PID.TID 0000.0001) %MON thSI_Ice_Area_G              =   2.2012055121148E+11
(PID.TID 0000.0001) %MON thSI_Ice_Area_S              =   0.0000000000000E+00
(PID.TID 0000.0001) %MON thSI_Ice_Area_N              =   2.2012055121148E+11
(PID.TID 0000.0001) %MON thSI_IceH_ave_G              =   1.1648082953448E-01
(PID.TID 0000.0001) %MON thSI_IceH_ave_S              =   0.0000000000000E+00
(PID.TID 0000.0001) %MON thSI_IceH_ave_N              =   1.1648082953448E-01
(PID.TID 0000.0001) %MON thSI_IceH_max_S              =   0.0000000000000E+00
(PID.TID 0000.0001) %MON thSI_IceH_max_N              =   1.4652857936699E-01
(PID.TID 0000.0001) %MON thSI_SnwH_ave_G              =   0.0000000000000E+00
(PID.TID 0000.0001) %MON thSI_SnwH_ave_S              =   0.0000000000000E+00
(PID.TID 0000.0001) %MON thSI_SnwH_ave_N              =   0.0000000000000E+00
(PID.TID 0000.0001) %MON thSI_SnwH_max_S              =   0.0000000000000E+00
(PID.TID 0000.0001) %MON thSI_SnwH_max_N              =   0.0000000000000E+00
(PID.TID 0000.0001) %MON thSI_Tsrf_ave_G              =  -8.0845649736440E+00
(PID.TID 0000.0001) %MON thSI_Tsrf_ave_S              =   0.0000000000000E+00
(PID.TID 0000.0001) %MON thSI_Tsrf_ave_N              =  -8.0845649736440E+00
(PID.TID 0000.0001) %MON thSI_Tsrf_min_S              =   0.0000000000000E+00
(PID.TID 0000.0001) %MON thSI_Tsrf_min_N              =  -9.1776275966549E+00
(PID.TID 0000.0001) %MON thSI_Tsrf_max_S              =   0.0000000000000E+00
(PID.TID 0000.0001) %MON thSI_Tsrf_max_N              =  -2.5793878195507E+00
(PID.TID 0000.0001) %MON thSI_Tic1_ave_G              =  -6.5760792379431E+00
(PID.TID 0000.0001) %MON thSI_Tic1_ave_S              =   0.0000000000000E+00
(PID.TID 0000.0001) %MON thSI_Tic1_ave_N              =  -6.5760792379431E+00
(PID.TID 0000.0001) %MON thSI_Tic1_min_S              =   0.0000000000000E+00
(PID.TID 0000.0001) %MON thSI_Tic1_min_N              =  -6.8026921742813E+00
(PID.TID 0000.0001) %MON thSI_Tic1_max_S              =   0.0000000000000E+00
(PID.TID 0000.0001) %MON thSI_Tic1_max_N              =  -2.2344260111435E+00
(PID.TID 0000.0001) %MON thSI_Tic2_ave_G              =  -3.1644106028351E+00
(PID.TID 0000.0001) %MON thSI_Tic2_ave_S              =   0.0000000000000E+00
(PID.TID 0000.0001) %MON thSI_Tic2_ave_N              =  -3.1644106028351E+00
(PID.TID 0000.0001) %MON thSI_Tic2_min_S              =   0.0000000000000E+00
(PID.TID 0000.0001) %MON thSI_Tic2_min_N              =  -3.2722634331496E+00
(PID.TID 0000.0001) %MON thSI_Tic2_max_S              =   0.0000000000000E+00
(PID.TID 0000.0001) %MON thSI_Tic2_max_N              =  -1.8145705167030E+00
(PID.TID 0000.0001) %MON thSI_TotEnerg_G              =  -7.9127570906638E+18
(PID.TID 0000.0001) // =======================================================
(PID.TID 0000.0001) // End MONITOR Therm.SeaIce statistics
(PID.TID 0000.0001) // =======================================================
 cg2d: Sum(rhs),rhsMax =   3.49245965480804E-10  1.90939533829686E+04
(PID.TID 0000.0001)      cg2d_init_res =   1.06696367026904E+04
(PID.TID 0000.0001)      cg2d_iters(min,last) =      -1      16
(PID.TID 0000.0001)      cg2d_last_res =   8.81048204652102E-11
(PID.TID 0000.0001) // =======================================================
(PID.TID 0000.0001) // Begin MONITOR dynamic field statistics
(PID.TID 0000.0001) // =======================================================
(PID.TID 0000.0001) %MON time_tsnumber                =                    27
(PID.TID 0000.0001) %MON time_secondsf                =   1.2150000000000E+04
(PID.TID 0000.0001) %MON dynstat_eta_max              =   3.4566204674500E+03
(PID.TID 0000.0001) %MON dynstat_eta_min              =  -7.4062802786386E+02
(PID.TID 0000.0001) %MON dynstat_eta_mean             =  -1.6065757781016E-14
(PID.TID 0000.0001) %MON dynstat_eta_sd               =   4.7453163059894E+02
(PID.TID 0000.0001) %MON dynstat_eta_del2             =   4.2767363111816E+00
(PID.TID 0000.0001) %MON dynstat_uvel_max             =   6.9557380861540E+00
(PID.TID 0000.0001) %MON dynstat_uvel_min             =  -5.9954567361385E+00
(PID.TID 0000.0001) %MON dynstat_uvel_mean            =   2.6845336001340E-02
(PID.TID 0000.0001) %MON dynstat_uvel_sd              =   8.0739106371589E-01
(PID.TID 0000.0001) %MON dynstat_uvel_del2            =   1.4408147324038E-03
(PID.TID 0000.0001) %MON dynstat_vvel_max             =   6.1792323108117E+00
(PID.TID 0000.0001) %MON dynstat_vvel_min             =  -7.5483297037533E+00
(PID.TID 0000.0001) %MON dynstat_vvel_mean            =   2.1552611004055E-02
(PID.TID 0000.0001) %MON dynstat_vvel_sd              =   8.3546715794369E-01
(PID.TID 0000.0001) %MON dynstat_vvel_del2            =   1.5042586438777E-03
(PID.TID 0000.0001) %MON dynstat_wvel_max             =   2.4294752673001E-01
(PID.TID 0000.0001) %MON dynstat_wvel_min             =  -2.0347268921191E-01
(PID.TID 0000.0001) %MON dynstat_wvel_mean            =   5.2788185010717E-04
(PID.TID 0000.0001) %MON dynstat_wvel_sd              =   1.5731733544561E-02
(PID.TID 0000.0001) %MON dynstat_wvel_del2            =   1.5373553195639E-04
(PID.TID 0000.0001) %MON dynstat_theta_max            =   4.4017141083449E+02
(PID.TID 0000.0001) %MON dynstat_theta_min            =   2.8321884886245E+02
(PID.TID 0000.0001) %MON dynstat_theta_mean           =   3.3168132990213E+02
(PID.TID 0000.0001) %MON dynstat_theta_sd             =   4.7456991194108E+01
(PID.TID 0000.0001) %MON dynstat_theta_del2           =   2.4074963571321E-03
(PID.TID 0000.0001) %MON dynstat_salt_max             =   4.6037226692619E+00
(PID.TID 0000.0001) %MON dynstat_salt_min             =  -1.5573008698013E-02
(PID.TID 0000.0001) %MON dynstat_salt_mean            =   9.7173716644003E-02
(PID.TID 0000.0001) %MON dynstat_salt_sd              =   3.8185588718270E-01
(PID.TID 0000.0001) %MON dynstat_salt_del2            =   1.1475184738326E-03
(PID.TID 0000.0001) %MON trAdv_CFL_u_max              =   9.8165892548730E-03
(PID.TID 0000.0001) %MON trAdv_CFL_v_max              =   1.0584622399603E-02
(PID.TID 0000.0001) %MON trAdv_CFL_w_max              =   6.9194160870320E-03
(PID.TID 0000.0001) %MON advcfl_uvel_max              =   9.8777094670069E-03
(PID.TID 0000.0001) %MON advcfl_vvel_max              =   1.0645539009905E-02
(PID.TID 0000.0001) %MON advcfl_wvel_max              =   4.6096367297386E-03
(PID.TID 0000.0001) %MON advcfl_W_hf_max              =   6.9194160870320E-03
(PID.TID 0000.0001) %MON am_eta_mean                  =  -1.2250141289258E+10
(PID.TID 0000.0001) %MON am_uZo_mean                  =   1.2093800139309E+10
(PID.TID 0000.0001) %MON am_tot_mean                  =  -1.5634114994913E+08
(PID.TID 0000.0001) %MON pe_b_mean                    =  -9.3744555187969E-01
(PID.TID 0000.0001) %MON ke_max                       =   2.6808804869397E+01
(PID.TID 0000.0001) %MON ke_mean                      =   6.7152107188528E-01
(PID.TID 0000.0001) %MON ke_vol                       =   4.9523908919847E+19
(PID.TID 0000.0001) %MON vort_r_min                   =  -2.4135912038676E-05
(PID.TID 0000.0001) %MON vort_r_max                   =   1.8205122846794E-05
(PID.TID 0000.0001) %MON vort_a_mean                  =   6.7242814765276E-08
(PID.TID 0000.0001) %MON vort_a_sd                    =   8.3998363760348E-05
(PID.TID 0000.0001) %MON vort_p_mean                  =   6.8939470076914E-08
(PID.TID 0000.0001) %MON vort_p_sd                    =   9.1976042875292E-05
(PID.TID 0000.0001) %MON surfExpan_theta_mean         =  -4.8989519465091E-02
(PID.TID 0000.0001) %MON surfExpan_salt_mean          =  -1.1934998334422E-03
(PID.TID 0000.0001) %MON surfExpan_Heat_mean          =   4.4034888790126E+00
(PID.TID 0000.0001) %MON En_Budget_T2PE_mean          =  -8.0877977841444E+00
(PID.TID 0000.0001) // =======================================================
(PID.TID 0000.0001) // End MONITOR dynamic field statistics
(PID.TID 0000.0001) // =======================================================
(PID.TID 0000.0001) // =======================================================
(PID.TID 0000.0001) // Begin MONITOR Land statistics
(PID.TID 0000.0001) // =======================================================
(PID.TID 0000.0001) %MON land_time_sec                =   1.2150000000000E+04
(PID.TID 0000.0001) %MON land_SnwH_ave_G              =   1.5322149642603E-01
(PID.TID 0000.0001) %MON land_SnwH_ave_S              =   5.5903790907018E-01
(PID.TID 0000.0001) %MON land_SnwH_ave_T              =   0.0000000000000E+00
(PID.TID 0000.0001) %MON land_SnwH_ave_N              =   1.2389393398883E-01
(PID.TID 0000.0001) %MON land_SnwH_max_S              =   9.9998293247408E-01
(PID.TID 0000.0001) %MON land_SnwH_max_T              =   0.0000000000000E+00
(PID.TID 0000.0001) %MON land_SnwH_max_N              =   9.9999778007573E-01
(PID.TID 0000.0001) %MON land_Tsrf_ave_G              =  -8.3651249444430E+00
(PID.TID 0000.0001) %MON land_Tsrf_ave_S              =  -6.8386958784548E+00
(PID.TID 0000.0001) %MON land_Tsrf_ave_T              =   1.0116039569614E+01
(PID.TID 0000.0001) %MON land_Tsrf_ave_N              =  -2.1201467373509E+01
(PID.TID 0000.0001) %MON land_Tsrf_min_S              =  -3.2001635761590E+01
(PID.TID 0000.0001) %MON land_Tsrf_min_T              =  -3.4325370193448E+00
(PID.TID 0000.0001) %MON land_Tsrf_min_N              =  -5.0312156819869E+01
(PID.TID 0000.0001) %MON land_Tsrf_max_S              =   2.0210751277383E+01
(PID.TID 0000.0001) %MON land_Tsrf_max_T              =   2.0291820113377E+01
(PID.TID 0000.0001) %MON land_Tsrf_max_N              =   8.2444360896220E+00
(PID.TID 0000.0001) %MON land_Tgr1_ave_G              =  -7.2599527890773E+00
(PID.TID 0000.0001) %MON land_Tgr1_ave_S              =  -7.2032884096393E+00
(PID.TID 0000.0001) %MON land_Tgr1_ave_T              =   1.0116039569614E+01
(PID.TID 0000.0001) %MON land_Tgr1_ave_N              =  -1.8881511046447E+01
(PID.TID 0000.0001) %MON land_Tgr1_min_S              =  -3.9257578062121E+01
(PID.TID 0000.0001) %MON land_Tgr1_min_T              =  -3.4325370193448E+00
(PID.TID 0000.0001) %MON land_Tgr1_min_N              =  -5.4623329059222E+01
(PID.TID 0000.0001) %MON land_Tgr1_max_S              =   2.0210751277383E+01
(PID.TID 0000.0001) %MON land_Tgr1_max_T              =   2.0291820113377E+01
(PID.TID 0000.0001) %MON land_Tgr1_max_N              =   8.2444360896220E+00
(PID.TID 0000.0001) %MON land_Tgr2_ave_G              =   4.2033876529290E+00
(PID.TID 0000.0001) %MON land_Tgr2_ave_S              =  -1.8726262547605E+01
(PID.TID 0000.0001) %MON land_Tgr2_ave_T              =   2.2009041065563E+01
(PID.TID 0000.0001) %MON land_Tgr2_ave_N              =  -2.4846522822723E-01
(PID.TID 0000.0001) %MON land_Tgr2_min_S              =  -6.4750630785428E+01
(PID.TID 0000.0001) %MON land_Tgr2_min_T              =  -9.7036030073566E+00
(PID.TID 0000.0001) %MON land_Tgr2_min_N              =  -4.0200047013101E+01
(PID.TID 0000.0001) %MON land_Tgr2_max_S              =   2.3359890447028E+01
(PID.TID 0000.0001) %MON land_Tgr2_max_T              =   3.1350907614348E+01
(PID.TID 0000.0001) %MON land_Tgr2_max_N              =   2.9820577796220E+01
(PID.TID 0000.0001) %MON land_TotEnerg_G              =  -6.3542582846589E+21
(PID.TID 0000.0001) %MON land_TotEnerg_S              =  -5.0023120480948E+21
(PID.TID 0000.0001) %MON land_TotEnerg_T              =   7.2761276894991E+21
(PID.TID 0000.0001) %MON land_TotEnerg_N              =  -8.6280739260631E+21
(PID.TID 0000.0001) %MON land_grdW_ave_G              =   4.8674361654451E-01
(PID.TID 0000.0001) %MON land_grdW_ave_S              =   3.0850950076778E-01
(PID.TID 0000.0001) %MON land_grdW_ave_T              =   5.6414744558045E-01
(PID.TID 0000.0001) %MON land_grdW_ave_N              =   4.9287367708237E-01
(PID.TID 0000.0001) %MON land_grdW_min_S              =   2.7686795100288E-02
(PID.TID 0000.0001) %MON land_grdW_min_T              =   0.0000000000000E+00
(PID.TID 0000.0001) %MON land_grdW_min_N              =   0.0000000000000E+00
(PID.TID 0000.0001) // =======================================================
(PID.TID 0000.0001) // End MONITOR Land statistics
(PID.TID 0000.0001) // =======================================================
(PID.TID 0000.0001) // =======================================================
(PID.TID 0000.0001) // Begin MONITOR Therm.SeaIce statistics
(PID.TID 0000.0001) // =======================================================
(PID.TID 0000.0001) %MON thSI_time_sec                =   1.2150000000000E+04
(PID.TID 0000.0001) %MON thSI_Ice_Area_G              =   2.2269551708687E+11
(PID.TID 0000.0001) %MON thSI_Ice_Area_S              =   0.0000000000000E+00
(PID.TID 0000.0001) %MON thSI_Ice_Area_N              =   2.2269551708687E+11
(PID.TID 0000.0001) %MON thSI_IceH_ave_G              =   1.1566360316060E-01
(PID.TID 0000.0001) %MON thSI_IceH_ave_S              =   0.0000000000000E+00
(PID.TID 0000.0001) %MON thSI_IceH_ave_N              =   1.1566360316060E-01
(PID.TID 0000.0001) %MON thSI_IceH_max_S              =   0.0000000000000E+00
(PID.TID 0000.0001) %MON thSI_IceH_max_N              =   1.4665063752993E-01
(PID.TID 0000.0001) %MON thSI_SnwH_ave_G              =   0.0000000000000E+00
(PID.TID 0000.0001) %MON thSI_SnwH_ave_S              =   0.0000000000000E+00
(PID.TID 0000.0001) %MON thSI_SnwH_ave_N              =   0.0000000000000E+00
(PID.TID 0000.0001) %MON thSI_SnwH_max_S              =   0.0000000000000E+00
(PID.TID 0000.0001) %MON thSI_SnwH_max_N              =   0.0000000000000E+00
(PID.TID 0000.0001) %MON thSI_Tsrf_ave_G              =  -8.0903642138238E+00
(PID.TID 0000.0001) %MON thSI_Tsrf_ave_S              =   0.0000000000000E+00
(PID.TID 0000.0001) %MON thSI_Tsrf_ave_N              =  -8.0903642138238E+00
(PID.TID 0000.0001) %MON thSI_Tsrf_min_S              =   0.0000000000000E+00
(PID.TID 0000.0001) %MON thSI_Tsrf_min_N              =  -9.2424211728619E+00
(PID.TID 0000.0001) %MON thSI_Tsrf_max_S              =   0.0000000000000E+00
(PID.TID 0000.0001) %MON thSI_Tsrf_max_N              =  -2.8621233920389E+00
(PID.TID 0000.0001) %MON thSI_Tic1_ave_G              =  -6.6424962714521E+00
(PID.TID 0000.0001) %MON thSI_Tic1_ave_S              =   0.0000000000000E+00
(PID.TID 0000.0001) %MON thSI_Tic1_ave_N              =  -6.6424962714521E+00
(PID.TID 0000.0001) %MON thSI_Tic1_min_S              =   0.0000000000000E+00
(PID.TID 0000.0001) %MON thSI_Tic1_min_N              =  -6.8865480582176E+00
(PID.TID 0000.0001) %MON thSI_Tic1_max_S              =   0.0000000000000E+00
(PID.TID 0000.0001) %MON thSI_Tic1_max_N              =  -2.5164028427933E+00
(PID.TID 0000.0001) %MON thSI_Tic2_ave_G              =  -3.1972209455137E+00
(PID.TID 0000.0001) %MON thSI_Tic2_ave_S              =   0.0000000000000E+00
(PID.TID 0000.0001) %MON thSI_Tic2_ave_N              =  -3.1972209455137E+00
(PID.TID 0000.0001) %MON thSI_Tic2_min_S              =   0.0000000000000E+00
(PID.TID 0000.0001) %MON thSI_Tic2_min_N              =  -3.3062528220820E+00
(PID.TID 0000.0001) %MON thSI_Tic2_max_S              =   0.0000000000000E+00
(PID.TID 0000.0001) %MON thSI_Tic2_max_N              =  -1.9123701924364E+00
(PID.TID 0000.0001) %MON thSI_TotEnerg_G              =  -7.9518406200380E+18
(PID.TID 0000.0001) // =======================================================
(PID.TID 0000.0001) // End MONITOR Therm.SeaIce statistics
(PID.TID 0000.0001) // =======================================================
 cg2d: Sum(rhs),rhsMax =  -1.16415321826935E-09  1.84917353350104E+04
(PID.TID 0000.0001)      cg2d_init_res =   1.05507285990799E+04
(PID.TID 0000.0001)      cg2d_iters(min,last) =      -1      16
(PID.TID 0000.0001)      cg2d_last_res =   8.54208797390643E-11
(PID.TID 0000.0001) // =======================================================
(PID.TID 0000.0001) // Begin MONITOR dynamic field statistics
(PID.TID 0000.0001) // =======================================================
(PID.TID 0000.0001) %MON time_tsnumber                =                    28
(PID.TID 0000.0001) %MON time_secondsf                =   1.2600000000000E+04
(PID.TID 0000.0001) %MON dynstat_eta_max              =   3.3759243077606E+03
(PID.TID 0000.0001) %MON dynstat_eta_min              =  -7.3983282001089E+02
(PID.TID 0000.0001) %MON dynstat_eta_mean             =   1.2852606224812E-14
(PID.TID 0000.0001) %MON dynstat_eta_sd               =   4.6490971862919E+02
(PID.TID 0000.0001) %MON dynstat_eta_del2             =   4.2845603623450E+00
(PID.TID 0000.0001) %MON dynstat_uvel_max             =   6.8612702055723E+00
(PID.TID 0000.0001) %MON dynstat_uvel_min             =  -5.8354295099296E+00
(PID.TID 0000.0001) %MON dynstat_uvel_mean            =   3.3308376412733E-02
(PID.TID 0000.0001) %MON dynstat_uvel_sd              =   8.0113177153306E-01
(PID.TID 0000.0001) %MON dynstat_uvel_del2            =   1.4643431794226E-03
(PID.TID 0000.0001) %MON dynstat_vvel_max             =   5.8600736268399E+00
(PID.TID 0000.0001) %MON dynstat_vvel_min             =  -7.3309379905932E+00
(PID.TID 0000.0001) %MON dynstat_vvel_mean            =   2.0452046800646E-02
(PID.TID 0000.0001) %MON dynstat_vvel_sd              =   8.3603068205422E-01
(PID.TID 0000.0001) %MON dynstat_vvel_del2            =   1.5249812892016E-03
(PID.TID 0000.0001) %MON dynstat_wvel_max             =   2.4765443318035E-01
(PID.TID 0000.0001) %MON dynstat_wvel_min             =  -1.9064462380206E-01
(PID.TID 0000.0001) %MON dynstat_wvel_mean            =   5.2652596801649E-04
(PID.TID 0000.0001) %MON dynstat_wvel_sd              =   1.5742481126340E-02
(PID.TID 0000.0001) %MON dynstat_wvel_del2            =   1.5306689911051E-04
(PID.TID 0000.0001) %MON dynstat_theta_max            =   4.3998643375673E+02
(PID.TID 0000.0001) %MON dynstat_theta_min            =   2.8300247668723E+02
(PID.TID 0000.0001) %MON dynstat_theta_mean           =   3.3167920138446E+02
(PID.TID 0000.0001) %MON dynstat_theta_sd             =   4.7459029712263E+01
(PID.TID 0000.0001) %MON dynstat_theta_del2           =   2.4655113927500E-03
(PID.TID 0000.0001) %MON dynstat_salt_max             =   4.6500399313847E+00
(PID.TID 0000.0001) %MON dynstat_salt_min             =  -1.7623772940465E-02
(PID.TID 0000.0001) %MON dynstat_salt_mean            =   1.0051833562638E-01
(PID.TID 0000.0001) %MON dynstat_salt_sd              =   3.9356160207641E-01
(PID.TID 0000.0001) %MON dynstat_salt_del2            =   1.1744672055589E-03
(PID.TID 0000.0001) %MON trAdv_CFL_u_max              =   9.6838824906940E-03
(PID.TID 0000.0001) %MON trAdv_CFL_v_max              =   1.0281951718427E-02
(PID.TID 0000.0001) %MON trAdv_CFL_w_max              =   7.2286208662307E-03
(PID.TID 0000.0001) %MON advcfl_uvel_max              =   9.7435574522541E-03
(PID.TID 0000.0001) %MON advcfl_vvel_max              =   1.0338947743532E-02
(PID.TID 0000.0001) %MON advcfl_wvel_max              =   4.4803835600456E-03
(PID.TID 0000.0001) %MON advcfl_W_hf_max              =   7.2286208662307E-03
(PID.TID 0000.0001) %MON am_eta_mean                  =  -1.2872005531417E+10
(PID.TID 0000.0001) %MON am_uZo_mean                  =   1.2706609043438E+10
(PID.TID 0000.0001) %MON am_tot_mean                  =  -1.6539648797880E+08
(PID.TID 0000.0001) %MON pe_b_mean                    =  -9.4272081100832E-01
(PID.TID 0000.0001) %MON ke_max                       =   2.4626080875709E+01
(PID.TID 0000.0001) %MON ke_mean                      =   6.6715127113319E-01
(PID.TID 0000.0001) %MON ke_vol                       =   4.9523908919847E+19
(PID.TID 0000.0001) %MON vort_r_min                   =  -2.3991305873319E-05
(PID.TID 0000.0001) %MON vort_r_max                   =   1.8258864645604E-05
(PID.TID 0000.0001) %MON vort_a_mean                  =   6.7242814765234E-08
(PID.TID 0000.0001) %MON vort_a_sd                    =   8.4000804815136E-05
(PID.TID 0000.0001) %MON vort_p_mean                  =   6.8939471707125E-08
(PID.TID 0000.0001) %MON vort_p_sd                    =   9.1967261984941E-05
(PID.TID 0000.0001) %MON surfExpan_theta_mean         =  -4.8771703811694E-02
(PID.TID 0000.0001) %MON surfExpan_salt_mean          =  -1.2869466192177E-03
(PID.TID 0000.0001) %MON surfExpan_Heat_mean          =   4.3603646309685E+00
(PID.TID 0000.0001) %MON En_Budget_T2PE_mean          =  -8.0269016892100E+00
(PID.TID 0000.0001) // =======================================================
(PID.TID 0000.0001) // End MONITOR dynamic field statistics
(PID.TID 0000.0001) // =======================================================
(PID.TID 0000.0001) // =======================================================
(PID.TID 0000.0001) // Begin MONITOR Land statistics
(PID.TID 0000.0001) // =======================================================
(PID.TID 0000.0001) %MON land_time_sec                =   1.2600000000000E+04
(PID.TID 0000.0001) %MON land_SnwH_ave_G              =   1.5322053205809E-01
(PID.TID 0000.0001) %MON land_SnwH_ave_S              =   5.5903695547925E-01
(PID.TID 0000.0001) %MON land_SnwH_ave_T              =   0.0000000000000E+00
(PID.TID 0000.0001) %MON land_SnwH_ave_N              =   1.2389232214834E-01
(PID.TID 0000.0001) %MON land_SnwH_max_S              =   9.9998227471498E-01
(PID.TID 0000.0001) %MON land_SnwH_max_T              =   0.0000000000000E+00
(PID.TID 0000.0001) %MON land_SnwH_max_N              =   9.9999769885665E-01
(PID.TID 0000.0001) %MON land_Tsrf_ave_G              =  -8.3956202753739E+00
(PID.TID 0000.0001) %MON land_Tsrf_ave_S              =  -6.8465581381697E+00
(PID.TID 0000.0001) %MON land_Tsrf_ave_T              =   1.0048007917209E+01
(PID.TID 0000.0001) %MON land_Tsrf_ave_N              =  -2.1214239083281E+01
(PID.TID 0000.0001) %MON land_Tsrf_min_S              =  -3.2011398627038E+01
(PID.TID 0000.0001) %MON land_Tsrf_min_T              =  -3.3294092206582E+00
(PID.TID 0000.0001) %MON land_Tsrf_min_N              =  -5.0350985317437E+01
(PID.TID 0000.0001) %MON land_Tsrf_max_S              =   2.0143801861652E+01
(PID.TID 0000.0001) %MON land_Tsrf_max_T              =   2.0181661118236E+01
(PID.TID 0000.0001) %MON land_Tsrf_max_N              =   8.1401582606245E+00
(PID.TID 0000.0001) %MON land_Tgr1_ave_G              =  -7.2954326672776E+00
(PID.TID 0000.0001) %MON land_Tgr1_ave_S              =  -7.2217260790770E+00
(PID.TID 0000.0001) %MON land_Tgr1_ave_T              =   1.0048007917209E+01
(PID.TID 0000.0001) %MON land_Tgr1_ave_N              =  -1.8900782195848E+01
(PID.TID 0000.0001) %MON land_Tgr1_min_S              =  -3.9266850758565E+01
(PID.TID 0000.0001) %MON land_Tgr1_min_T              =  -3.3294092206582E+00
(PID.TID 0000.0001) %MON land_Tgr1_min_N              =  -5.4609027485878E+01
(PID.TID 0000.0001) %MON land_Tgr1_max_S              =   2.0143801861652E+01
(PID.TID 0000.0001) %MON land_Tgr1_max_T              =   2.0181661118236E+01
(PID.TID 0000.0001) %MON land_Tgr1_max_N              =   8.1401582606245E+00
(PID.TID 0000.0001) %MON land_Tgr2_ave_G              =   4.2032114419985E+00
(PID.TID 0000.0001) %MON land_Tgr2_ave_S              =  -1.8726069659907E+01
(PID.TID 0000.0001) %MON land_Tgr2_ave_T              =   2.2008848126400E+01
(PID.TID 0000.0001) %MON land_Tgr2_ave_N              =  -2.4875000188187E-01
(PID.TID 0000.0001) %MON land_Tgr2_min_S              =  -6.4750201282291E+01
(PID.TID 0000.0001) %MON land_Tgr2_min_T              =  -9.7035224699438E+00
(PID.TID 0000.0001) %MON land_Tgr2_min_N              =  -4.0200281551657E+01
(PID.TID 0000.0001) %MON land_Tgr2_max_S              =   2.3359821452024E+01
(PID.TID 0000.0001) %MON land_Tgr2_max_T              =   3.1350469512932E+01
(PID.TID 0000.0001) %MON land_Tgr2_max_N              =   2.9820037307063E+01
(PID.TID 0000.0001) %MON land_TotEnerg_G              =  -6.3554843774021E+21
(PID.TID 0000.0001) %MON land_TotEnerg_S              =  -5.0023532053437E+21
(PID.TID 0000.0001) %MON land_TotEnerg_T              =   7.2755111357641E+21
(PID.TID 0000.0001) %MON land_TotEnerg_N              =  -8.6286423078225E+21
(PID.TID 0000.0001) %MON land_grdW_ave_G              =   4.8673614293498E-01
(PID.TID 0000.0001) %MON land_grdW_ave_S              =   3.0850193744746E-01
(PID.TID 0000.0001) %MON land_grdW_ave_T              =   5.6412925406281E-01
(PID.TID 0000.0001) %MON land_grdW_ave_N              =   4.9287338967830E-01
(PID.TID 0000.0001) %MON land_grdW_min_S              =   2.7774046584266E-02
(PID.TID 0000.0001) %MON land_grdW_min_T              =   0.0000000000000E+00
(PID.TID 0000.0001) %MON land_grdW_min_N              =   0.0000000000000E+00
(PID.TID 0000.0001) // =======================================================
(PID.TID 0000.0001) // End MONITOR Land statistics
(PID.TID 0000.0001) // =======================================================
(PID.TID 0000.0001) // =======================================================
(PID.TID 0000.0001) // Begin MONITOR Therm.SeaIce statistics
(PID.TID 0000.0001) // =======================================================
(PID.TID 0000.0001) %MON thSI_time_sec                =   1.2600000000000E+04
(PID.TID 0000.0001) %MON thSI_Ice_Area_G              =   2.2518882892049E+11
(PID.TID 0000.0001) %MON thSI_Ice_Area_S              =   0.0000000000000E+00
(PID.TID 0000.0001) %MON thSI_Ice_Area_N              =   2.2518882892049E+11
(PID.TID 0000.0001) %MON thSI_IceH_ave_G              =   1.1491144436199E-01
(PID.TID 0000.0001) %MON thSI_IceH_ave_S              =   0.0000000000000E+00
(PID.TID 0000.0001) %MON thSI_IceH_ave_N              =   1.1491144436199E-01
(PID.TID 0000.0001) %MON thSI_IceH_max_S              =   0.0000000000000E+00
(PID.TID 0000.0001) %MON thSI_IceH_max_N              =   1.4677574042315E-01
(PID.TID 0000.0001) %MON thSI_SnwH_ave_G              =   0.0000000000000E+00
(PID.TID 0000.0001) %MON thSI_SnwH_ave_S              =   0.0000000000000E+00
(PID.TID 0000.0001) %MON thSI_SnwH_ave_N              =   0.0000000000000E+00
(PID.TID 0000.0001) %MON thSI_SnwH_max_S              =   0.0000000000000E+00
(PID.TID 0000.0001) %MON thSI_SnwH_max_N              =   0.0000000000000E+00
(PID.TID 0000.0001) %MON thSI_Tsrf_ave_G              =  -8.0932841564627E+00
(PID.TID 0000.0001) %MON thSI_Tsrf_ave_S              =   0.0000000000000E+00
(PID.TID 0000.0001) %MON thSI_Tsrf_ave_N              =  -8.0932841564627E+00
(PID.TID 0000.0001) %MON thSI_Tsrf_min_S              =   0.0000000000000E+00
(PID.TID 0000.0001) %MON thSI_Tsrf_min_N              =  -9.3038163258955E+00
(PID.TID 0000.0001) %MON thSI_Tsrf_max_S              =   0.0000000000000E+00
(PID.TID 0000.0001) %MON thSI_Tsrf_max_N              =  -2.9750463709996E+00
(PID.TID 0000.0001) %MON thSI_Tic1_ave_G              =  -6.7023634147057E+00
(PID.TID 0000.0001) %MON thSI_Tic1_ave_S              =   0.0000000000000E+00
(PID.TID 0000.0001) %MON thSI_Tic1_ave_N              =  -6.7023634147057E+00
(PID.TID 0000.0001) %MON thSI_Tic1_min_S              =   0.0000000000000E+00
(PID.TID 0000.0001) %MON thSI_Tic1_min_N              =  -6.9658931065581E+00
(PID.TID 0000.0001) %MON thSI_Tic1_max_S              =   0.0000000000000E+00
(PID.TID 0000.0001) %MON thSI_Tic1_max_N              =  -2.6248530296689E+00
(PID.TID 0000.0001) %MON thSI_Tic2_ave_G              =  -3.2268141734375E+00
(PID.TID 0000.0001) %MON thSI_Tic2_ave_S              =   0.0000000000000E+00
(PID.TID 0000.0001) %MON thSI_Tic2_ave_N              =  -3.2268141734375E+00
(PID.TID 0000.0001) %MON thSI_Tic2_min_S              =   0.0000000000000E+00
(PID.TID 0000.0001) %MON thSI_Tic2_min_N              =  -3.3369104447877E+00
(PID.TID 0000.0001) %MON thSI_Tic2_max_S              =   0.0000000000000E+00
(PID.TID 0000.0001) %MON thSI_Tic2_max_N              =  -1.9508200654838E+00
(PID.TID 0000.0001) %MON thSI_TotEnerg_G              =  -7.9909987871780E+18
(PID.TID 0000.0001) // =======================================================
(PID.TID 0000.0001) // End MONITOR Therm.SeaIce statistics
(PID.TID 0000.0001) // =======================================================
 cg2d: Sum(rhs),rhsMax =   2.21189111471176E-09  1.79986493580429E+04
(PID.TID 0000.0001)      cg2d_init_res =   1.04124212690287E+04
(PID.TID 0000.0001)      cg2d_iters(min,last) =      -1      16
(PID.TID 0000.0001)      cg2d_last_res =   8.03144343416833E-11
(PID.TID 0000.0001) // =======================================================
(PID.TID 0000.0001) // Begin MONITOR dynamic field statistics
(PID.TID 0000.0001) // =======================================================
(PID.TID 0000.0001) %MON time_tsnumber                =                    29
(PID.TID 0000.0001) %MON time_secondsf                =   1.3050000000000E+04
(PID.TID 0000.0001) %MON dynstat_eta_max              =   3.2922417735756E+03
(PID.TID 0000.0001) %MON dynstat_eta_min              =  -7.4011838136616E+02
(PID.TID 0000.0001) %MON dynstat_eta_mean             =   2.5705212449625E-14
(PID.TID 0000.0001) %MON dynstat_eta_sd               =   4.5582587199795E+02
(PID.TID 0000.0001) %MON dynstat_eta_del2             =   4.2966381089847E+00
(PID.TID 0000.0001) %MON dynstat_uvel_max             =   6.7447542796884E+00
(PID.TID 0000.0001) %MON dynstat_uvel_min             =  -5.5333531410610E+00
(PID.TID 0000.0001) %MON dynstat_uvel_mean            =   4.0073444848346E-02
(PID.TID 0000.0001) %MON dynstat_uvel_sd              =   7.9452289788184E-01
(PID.TID 0000.0001) %MON dynstat_uvel_del2            =   1.4897846699125E-03
(PID.TID 0000.0001) %MON dynstat_vvel_max             =   5.4377367361685E+00
(PID.TID 0000.0001) %MON dynstat_vvel_min             =  -6.9723222567271E+00
(PID.TID 0000.0001) %MON dynstat_vvel_mean            =   1.9439522058992E-02
(PID.TID 0000.0001) %MON dynstat_vvel_sd              =   8.3464585719575E-01
(PID.TID 0000.0001) %MON dynstat_vvel_del2            =   1.5446779461845E-03
(PID.TID 0000.0001) %MON dynstat_wvel_max             =   2.5502732392258E-01
(PID.TID 0000.0001) %MON dynstat_wvel_min             =  -1.9823087902442E-01
(PID.TID 0000.0001) %MON dynstat_wvel_mean            =   5.1214244977549E-04
(PID.TID 0000.0001) %MON dynstat_wvel_sd              =   1.5699872675487E-02
(PID.TID 0000.0001) %MON dynstat_wvel_del2            =   1.5160425925605E-04
(PID.TID 0000.0001) %MON dynstat_theta_max            =   4.3978138325624E+02
(PID.TID 0000.0001) %MON dynstat_theta_min            =   2.8278704038199E+02
(PID.TID 0000.0001) %MON dynstat_theta_mean           =   3.3167704394141E+02
(PID.TID 0000.0001) %MON dynstat_theta_sd             =   4.7461075368103E+01
(PID.TID 0000.0001) %MON dynstat_theta_del2           =   2.5271645015828E-03
(PID.TID 0000.0001) %MON dynstat_salt_max             =   4.6926838682448E+00
(PID.TID 0000.0001) %MON dynstat_salt_min             =  -1.9738526214553E-02
(PID.TID 0000.0001) %MON dynstat_salt_mean            =   1.0385216891126E-01
(PID.TID 0000.0001) %MON dynstat_salt_sd              =   4.0516389297861E-01
(PID.TID 0000.0001) %MON dynstat_salt_del2            =   1.2013180984136E-03
(PID.TID 0000.0001) %MON trAdv_CFL_u_max              =   9.5199695476417E-03
(PID.TID 0000.0001) %MON trAdv_CFL_v_max              =   9.7807533262686E-03
(PID.TID 0000.0001) %MON trAdv_CFL_w_max              =   7.5253098843721E-03
(PID.TID 0000.0001) %MON advcfl_uvel_max              =   9.5780954337155E-03
(PID.TID 0000.0001) %MON advcfl_vvel_max              =   9.8331858154940E-03
(PID.TID 0000.0001) %MON advcfl_wvel_max              =   4.4052050635705E-03
(PID.TID 0000.0001) %MON advcfl_W_hf_max              =   7.5253098843721E-03
(PID.TID 0000.0001) %MON am_eta_mean                  =  -1.3477192818925E+10
(PID.TID 0000.0001) %MON am_uZo_mean                  =   1.3302719578704E+10
(PID.TID 0000.0001) %MON am_tot_mean                  =  -1.7447324022053E+08
(PID.TID 0000.0001) %MON pe_b_mean                    =  -9.4590348467477E-01
(PID.TID 0000.0001) %MON ke_max                       =   2.3105621666189E+01
(PID.TID 0000.0001) %MON ke_mean                      =   6.6098235463327E-01
(PID.TID 0000.0001) %MON ke_vol                       =   4.9523908919847E+19
(PID.TID 0000.0001) %MON vort_r_min                   =  -2.3864398946460E-05
(PID.TID 0000.0001) %MON vort_r_max                   =   1.8259181072031E-05
(PID.TID 0000.0001) %MON vort_a_mean                  =   6.7242814765224E-08
(PID.TID 0000.0001) %MON vort_a_sd                    =   8.4003181938756E-05
(PID.TID 0000.0001) %MON vort_p_mean                  =   6.8939473383672E-08
(PID.TID 0000.0001) %MON vort_p_sd                    =   9.1958702344105E-05
(PID.TID 0000.0001) %MON surfExpan_theta_mean         =  -4.7392804406571E-02
(PID.TID 0000.0001) %MON surfExpan_salt_mean          =  -1.3755677956032E-03
(PID.TID 0000.0001) %MON surfExpan_Heat_mean          =   4.2060096792710E+00
(PID.TID 0000.0001) %MON En_Budget_T2PE_mean          =  -7.7685174688504E+00
(PID.TID 0000.0001) // =======================================================
(PID.TID 0000.0001) // End MONITOR dynamic field statistics
(PID.TID 0000.0001) // =======================================================
(PID.TID 0000.0001) // =======================================================
(PID.TID 0000.0001) // Begin MONITOR Land statistics
(PID.TID 0000.0001) // =======================================================
(PID.TID 0000.0001) %MON land_time_sec                =   1.3050000000000E+04
(PID.TID 0000.0001) %MON land_SnwH_ave_G              =   1.5321956965700E-01
(PID.TID 0000.0001) %MON land_SnwH_ave_S              =   5.5903600373240E-01
(PID.TID 0000.0001) %MON land_SnwH_ave_T              =   0.0000000000000E+00
(PID.TID 0000.0001) %MON land_SnwH_ave_N              =   1.2389071362794E-01
(PID.TID 0000.0001) %MON land_SnwH_max_S              =   9.9998161708795E-01
(PID.TID 0000.0001) %MON land_SnwH_max_T              =   0.0000000000000E+00
(PID.TID 0000.0001) %MON land_SnwH_max_N              =   9.9999761766714E-01
(PID.TID 0000.0001) %MON land_Tsrf_ave_G              =  -8.4237339872030E+00
(PID.TID 0000.0001) %MON land_Tsrf_ave_S              =  -6.8533694865102E+00
(PID.TID 0000.0001) %MON land_Tsrf_ave_T              =   9.9856518462395E+00
(PID.TID 0000.0001) %MON land_Tsrf_ave_N              =  -2.1226397111644E+01
(PID.TID 0000.0001) %MON land_Tsrf_min_S              =  -3.2013095566593E+01
(PID.TID 0000.0001) %MON land_Tsrf_min_T              =  -3.2296107278523E+00
(PID.TID 0000.0001) %MON land_Tsrf_min_N              =  -5.0378542726288E+01
(PID.TID 0000.0001) %MON land_Tsrf_max_S              =   2.0084062541892E+01
(PID.TID 0000.0001) %MON land_Tsrf_max_T              =   2.0083312307403E+01
(PID.TID 0000.0001) %MON land_Tsrf_max_N              =   8.0425803882553E+00
(PID.TID 0000.0001) %MON land_Tgr1_ave_G              =  -7.3282420451958E+00
(PID.TID 0000.0001) %MON land_Tgr1_ave_S              =  -7.2381292591748E+00
(PID.TID 0000.0001) %MON land_Tgr1_ave_T              =   9.9856518462395E+00
(PID.TID 0000.0001) %MON land_Tgr1_ave_N              =  -1.8919183231708E+01
(PID.TID 0000.0001) %MON land_Tgr1_min_S              =  -3.9276108125335E+01
(PID.TID 0000.0001) %MON land_Tgr1_min_T              =  -3.2296107278523E+00
(PID.TID 0000.0001) %MON land_Tgr1_min_N              =  -5.4594754627261E+01
(PID.TID 0000.0001) %MON land_Tgr1_max_S              =   2.0084062541892E+01
(PID.TID 0000.0001) %MON land_Tgr1_max_T              =   2.0083312307403E+01
(PID.TID 0000.0001) %MON land_Tgr1_max_N              =   8.0425803882553E+00
(PID.TID 0000.0001) %MON land_Tgr2_ave_G              =   4.2030347654751E+00
(PID.TID 0000.0001) %MON land_Tgr2_ave_S              =  -1.8725877034442E+01
(PID.TID 0000.0001) %MON land_Tgr2_ave_T              =   2.2008654318356E+01
(PID.TID 0000.0001) %MON land_Tgr2_ave_N              =  -2.4903503779507E-01
(PID.TID 0000.0001) %MON land_Tgr2_min_S              =  -6.4749771959261E+01
(PID.TID 0000.0001) %MON land_Tgr2_min_T              =  -9.7034406728486E+00
(PID.TID 0000.0001) %MON land_Tgr2_min_N              =  -4.0200515846817E+01
(PID.TID 0000.0001) %MON land_Tgr2_max_S              =   2.3359751083741E+01
(PID.TID 0000.0001) %MON land_Tgr2_max_T              =   3.1350029208860E+01
(PID.TID 0000.0001) %MON land_Tgr2_max_N              =   2.9819492526214E+01
(PID.TID 0000.0001) %MON land_TotEnerg_G              =  -6.3566477921144E+21
(PID.TID 0000.0001) %MON land_TotEnerg_S              =  -5.0023873120776E+21
(PID.TID 0000.0001) %MON land_TotEnerg_T              =   7.2749401570638E+21
(PID.TID 0000.0001) %MON land_TotEnerg_N              =  -8.6292006371006E+21
(PID.TID 0000.0001) %MON land_grdW_ave_G              =   4.8672874787182E-01
(PID.TID 0000.0001) %MON land_grdW_ave_S              =   3.0849442482170E-01
(PID.TID 0000.0001) %MON land_grdW_ave_T              =   5.6411127109136E-01
(PID.TID 0000.0001) %MON land_grdW_ave_N              =   4.9287310304550E-01
(PID.TID 0000.0001) %MON land_grdW_min_S              =   2.7861140749676E-02
(PID.TID 0000.0001) %MON land_grdW_min_T              =   0.0000000000000E+00
(PID.TID 0000.0001) %MON land_grdW_min_N              =   0.0000000000000E+00
(PID.TID 0000.0001) // =======================================================
(PID.TID 0000.0001) // End MONITOR Land statistics
(PID.TID 0000.0001) // =======================================================
(PID.TID 0000.0001) // =======================================================
(PID.TID 0000.0001) // Begin MONITOR Therm.SeaIce statistics
(PID.TID 0000.0001) // =======================================================
(PID.TID 0000.0001) %MON thSI_time_sec                =   1.3050000000000E+04
(PID.TID 0000.0001) %MON thSI_Ice_Area_G              =   2.2760510289391E+11
(PID.TID 0000.0001) %MON thSI_Ice_Area_S              =   0.0000000000000E+00
(PID.TID 0000.0001) %MON thSI_Ice_Area_N              =   2.2760510289391E+11
(PID.TID 0000.0001) %MON thSI_IceH_ave_G              =   1.1421872930233E-01
(PID.TID 0000.0001) %MON thSI_IceH_ave_S              =   0.0000000000000E+00
(PID.TID 0000.0001) %MON thSI_IceH_ave_N              =   1.1421872930233E-01
(PID.TID 0000.0001) %MON thSI_IceH_max_S              =   0.0000000000000E+00
(PID.TID 0000.0001) %MON thSI_IceH_max_N              =   1.4690364899394E-01
(PID.TID 0000.0001) %MON thSI_SnwH_ave_G              =   0.0000000000000E+00
(PID.TID 0000.0001) %MON thSI_SnwH_ave_S              =   0.0000000000000E+00
(PID.TID 0000.0001) %MON thSI_SnwH_ave_N              =   0.0000000000000E+00
(PID.TID 0000.0001) %MON thSI_SnwH_max_S              =   0.0000000000000E+00
(PID.TID 0000.0001) %MON thSI_SnwH_max_N              =   0.0000000000000E+00
(PID.TID 0000.0001) %MON thSI_Tsrf_ave_G              =  -8.0937620739513E+00
(PID.TID 0000.0001) %MON thSI_Tsrf_ave_S              =   0.0000000000000E+00
(PID.TID 0000.0001) %MON thSI_Tsrf_ave_N              =  -8.0937620739513E+00
(PID.TID 0000.0001) %MON thSI_Tsrf_min_S              =   0.0000000000000E+00
(PID.TID 0000.0001) %MON thSI_Tsrf_min_N              =  -9.3629919239751E+00
(PID.TID 0000.0001) %MON thSI_Tsrf_max_S              =   0.0000000000000E+00
(PID.TID 0000.0001) %MON thSI_Tsrf_max_N              =  -3.0285577139577E+00
(PID.TID 0000.0001) %MON thSI_Tic1_ave_G              =  -6.7561527068704E+00
(PID.TID 0000.0001) %MON thSI_Tic1_ave_S              =   0.0000000000000E+00
(PID.TID 0000.0001) %MON thSI_Tic1_ave_N              =  -6.7561527068704E+00
(PID.TID 0000.0001) %MON thSI_Tic1_min_S              =   0.0000000000000E+00
(PID.TID 0000.0001) %MON thSI_Tic1_min_N              =  -7.0390589192626E+00
(PID.TID 0000.0001) %MON thSI_Tic1_max_S              =   0.0000000000000E+00
(PID.TID 0000.0001) %MON thSI_Tic1_max_N              =  -2.6726134481168E+00
(PID.TID 0000.0001) %MON thSI_Tic2_ave_G              =  -3.2534985875963E+00
(PID.TID 0000.0001) %MON thSI_Tic2_ave_S              =   0.0000000000000E+00
(PID.TID 0000.0001) %MON thSI_Tic2_ave_N              =  -3.2534985875963E+00
(PID.TID 0000.0001) %MON thSI_Tic2_min_S              =   0.0000000000000E+00
(PID.TID 0000.0001) %MON thSI_Tic2_min_N              =  -3.3645726011433E+00
(PID.TID 0000.0001) %MON thSI_Tic2_max_S              =   0.0000000000000E+00
(PID.TID 0000.0001) %MON thSI_Tic2_max_N              =  -1.9675822534232E+00
(PID.TID 0000.0001) %MON thSI_TotEnerg_G              =  -8.0302286240474E+18
(PID.TID 0000.0001) // =======================================================
(PID.TID 0000.0001) // End MONITOR Therm.SeaIce statistics
(PID.TID 0000.0001) // =======================================================
 cg2d: Sum(rhs),rhsMax =  -5.82076609134674E-10  1.76521035294225E+04
(PID.TID 0000.0001)      cg2d_init_res =   1.02553271100870E+04
(PID.TID 0000.0001)      cg2d_iters(min,last) =      -1      16
(PID.TID 0000.0001)      cg2d_last_res =   7.43225074559406E-11
(PID.TID 0000.0001) // =======================================================
(PID.TID 0000.0001) // Begin MONITOR dynamic field statistics
(PID.TID 0000.0001) // =======================================================
(PID.TID 0000.0001) %MON time_tsnumber                =                    30
(PID.TID 0000.0001) %MON time_secondsf                =   1.3500000000000E+04
(PID.TID 0000.0001) %MON dynstat_eta_max              =   3.2083276290418E+03
(PID.TID 0000.0001) %MON dynstat_eta_min              =  -7.4142843965159E+02
(PID.TID 0000.0001) %MON dynstat_eta_mean             =  -6.4263031124062E-15
(PID.TID 0000.0001) %MON dynstat_eta_sd               =   4.4748072472807E+02
(PID.TID 0000.0001) %MON dynstat_eta_del2             =   4.3114140211701E+00
(PID.TID 0000.0001) %MON dynstat_uvel_max             =   6.6127392381737E+00
(PID.TID 0000.0001) %MON dynstat_uvel_min             =  -5.3946827777580E+00
(PID.TID 0000.0001) %MON dynstat_uvel_mean            =   4.7035850279638E-02
(PID.TID 0000.0001) %MON dynstat_uvel_sd              =   7.8777408627823E-01
(PID.TID 0000.0001) %MON dynstat_uvel_del2            =   1.5168713792935E-03
(PID.TID 0000.0001) %MON dynstat_vvel_max             =   5.2088074667590E+00
(PID.TID 0000.0001) %MON dynstat_vvel_min             =  -6.5968712483011E+00
(PID.TID 0000.0001) %MON dynstat_vvel_mean            =   1.8589388529564E-02
(PID.TID 0000.0001) %MON dynstat_vvel_sd              =   8.3134399647062E-01
(PID.TID 0000.0001) %MON dynstat_vvel_del2            =   1.5637856363138E-03
(PID.TID 0000.0001) %MON dynstat_wvel_max             =   2.5651602171894E-01
(PID.TID 0000.0001) %MON dynstat_wvel_min             =  -2.0502222296239E-01
(PID.TID 0000.0001) %MON dynstat_wvel_mean            =   4.8750105877101E-04
(PID.TID 0000.0001) %MON dynstat_wvel_sd              =   1.5599712729338E-02
(PID.TID 0000.0001) %MON dynstat_wvel_del2            =   1.4947918104538E-04
(PID.TID 0000.0001) %MON dynstat_theta_max            =   4.3956470552133E+02
(PID.TID 0000.0001) %MON dynstat_theta_min            =   2.8257239886616E+02
(PID.TID 0000.0001) %MON dynstat_theta_mean           =   3.3167486033581E+02
(PID.TID 0000.0001) %MON dynstat_theta_sd             =   4.7463128279272E+01
(PID.TID 0000.0001) %MON dynstat_theta_del2           =   2.5909778547765E-03
(PID.TID 0000.0001) %MON dynstat_salt_max             =   4.7322710441587E+00
(PID.TID 0000.0001) %MON dynstat_salt_min             =  -2.1916135374956E-02
(PID.TID 0000.0001) %MON dynstat_salt_mean            =   1.0717546761136E-01
(PID.TID 0000.0001) %MON dynstat_salt_sd              =   4.1666584593242E-01
(PID.TID 0000.0001) %MON dynstat_salt_del2            =   1.2283665894561E-03
(PID.TID 0000.0001) %MON trAdv_CFL_u_max              =   9.3340471398317E-03
(PID.TID 0000.0001) %MON trAdv_CFL_v_max              =   9.3704357043051E-03
(PID.TID 0000.0001) %MON trAdv_CFL_w_max              =   7.8099423094098E-03
(PID.TID 0000.0001) %MON advcfl_uvel_max              =   9.3906234200765E-03
(PID.TID 0000.0001) %MON advcfl_vvel_max              =   9.4034943497620E-03
(PID.TID 0000.0001) %MON advcfl_wvel_max              =   4.2704166861601E-03
(PID.TID 0000.0001) %MON advcfl_W_hf_max              =   7.8099423094098E-03
(PID.TID 0000.0001) %MON am_eta_mean                  =  -1.4063334049698E+10
(PID.TID 0000.0001) %MON am_uZo_mean                  =   1.3879759676899E+10
(PID.TID 0000.0001) %MON am_tot_mean                  =  -1.8357437279893E+08
(PID.TID 0000.0001) %MON pe_b_mean                    =  -9.4708423883855E-01
(PID.TID 0000.0001) %MON ke_max                       =   2.2349605234907E+01
(PID.TID 0000.0001) %MON ke_mean                      =   6.5322180362203E-01
(PID.TID 0000.0001) %MON ke_vol                       =   4.9523908919847E+19
(PID.TID 0000.0001) %MON vort_r_min                   =  -2.3944621647671E-05
(PID.TID 0000.0001) %MON vort_r_max                   =   1.8206888578026E-05
(PID.TID 0000.0001) %MON vort_a_mean                  =   6.7242814765209E-08
(PID.TID 0000.0001) %MON vort_a_sd                    =   8.4005489684270E-05
(PID.TID 0000.0001) %MON vort_p_mean                  =   6.8939475035343E-08
(PID.TID 0000.0001) %MON vort_p_sd                    =   9.1950477861637E-05
(PID.TID 0000.0001) %MON surfExpan_theta_mean         =  -4.5111108495275E-02
(PID.TID 0000.0001) %MON surfExpan_salt_mean          =  -1.4576513169133E-03
(PID.TID 0000.0001) %MON surfExpan_Heat_mean          =   3.9652092384168E+00
(PID.TID 0000.0001) %MON En_Budget_T2PE_mean          =  -7.3563589563236E+00
(PID.TID 0000.0001) // =======================================================
(PID.TID 0000.0001) // End MONITOR dynamic field statistics
(PID.TID 0000.0001) // =======================================================
(PID.TID 0000.0001) // =======================================================
(PID.TID 0000.0001) // Begin MONITOR Land statistics
(PID.TID 0000.0001) // =======================================================
(PID.TID 0000.0001) %MON land_time_sec                =   1.3500000000000E+04
(PID.TID 0000.0001) %MON land_SnwH_ave_G              =   1.5321860922497E-01
(PID.TID 0000.0001) %MON land_SnwH_ave_S              =   5.5903505413858E-01
(PID.TID 0000.0001) %MON land_SnwH_ave_T              =   0.0000000000000E+00
(PID.TID 0000.0001) %MON land_SnwH_ave_N              =   1.2388910833180E-01
(PID.TID 0000.0001) %MON land_SnwH_max_S              =   9.9998095922575E-01
(PID.TID 0000.0001) %MON land_SnwH_max_T              =   0.0000000000000E+00
(PID.TID 0000.0001) %MON land_SnwH_max_N              =   9.9999753659444E-01
(PID.TID 0000.0001) %MON land_Tsrf_ave_G              =  -8.4495031112649E+00
(PID.TID 0000.0001) %MON land_Tsrf_ave_S              =  -6.8587241967130E+00
(PID.TID 0000.0001) %MON land_Tsrf_ave_T              =   9.9285387536315E+00
(PID.TID 0000.0001) %MON land_Tsrf_ave_N              =  -2.1237857966791E+01
(PID.TID 0000.0001) %MON land_Tsrf_min_S              =  -3.2008702104787E+01
(PID.TID 0000.0001) %MON land_Tsrf_min_T              =  -3.1330799491543E+00
(PID.TID 0000.0001) %MON land_Tsrf_min_N              =  -5.0403475107604E+01
(PID.TID 0000.0001) %MON land_Tsrf_max_S              =   2.0030710850107E+01
(PID.TID 0000.0001) %MON land_Tsrf_max_T              =   1.9995662142827E+01
(PID.TID 0000.0001) %MON land_Tsrf_max_N              =   7.9514106861289E+00
(PID.TID 0000.0001) %MON land_Tgr1_ave_G              =  -7.3584879853232E+00
(PID.TID 0000.0001) %MON land_Tgr1_ave_S              =  -7.2527383598209E+00
(PID.TID 0000.0001) %MON land_Tgr1_ave_T              =   9.9285387536315E+00
(PID.TID 0000.0001) %MON land_Tgr1_ave_N              =  -1.8936560573009E+01
(PID.TID 0000.0001) %MON land_Tgr1_min_S              =  -3.9285339024077E+01
(PID.TID 0000.0001) %MON land_Tgr1_min_T              =  -3.1330799491543E+00
(PID.TID 0000.0001) %MON land_Tgr1_min_N              =  -5.4580516117500E+01
(PID.TID 0000.0001) %MON land_Tgr1_max_S              =   2.0030710850107E+01
(PID.TID 0000.0001) %MON land_Tgr1_max_T              =   1.9995662142827E+01
(PID.TID 0000.0001) %MON land_Tgr1_max_N              =   7.9514106861289E+00
(PID.TID 0000.0001) %MON land_Tgr2_ave_G              =   4.2028576669935E+00
(PID.TID 0000.0001) %MON land_Tgr2_ave_S              =  -1.8725684642871E+01
(PID.TID 0000.0001) %MON land_Tgr2_ave_T              =   2.2008459729303E+01
(PID.TID 0000.0001) %MON land_Tgr2_ave_N              =  -2.4932031690927E-01
(PID.TID 0000.0001) %MON land_Tgr2_min_S              =  -6.4749342815975E+01
(PID.TID 0000.0001) %MON land_Tgr2_min_T              =  -9.7033576573811E+00
(PID.TID 0000.0001) %MON land_Tgr2_min_N              =  -4.0200749899627E+01
(PID.TID 0000.0001) %MON land_Tgr2_max_S              =   2.3359679448703E+01
(PID.TID 0000.0001) %MON land_Tgr2_max_T              =   3.1349586835642E+01
(PID.TID 0000.0001) %MON land_Tgr2_max_N              =   2.9818943617665E+01
(PID.TID 0000.0001) %MON land_TotEnerg_G              =  -6.3577542104827E+21
(PID.TID 0000.0001) %MON land_TotEnerg_S              =  -5.0024151783462E+21
(PID.TID 0000.0001) %MON land_TotEnerg_T              =   7.2744103169717E+21
(PID.TID 0000.0001) %MON land_TotEnerg_N              =  -8.6297493491082E+21
(PID.TID 0000.0001) %MON land_grdW_ave_G              =   4.8672142364915E-01
(PID.TID 0000.0001) %MON land_grdW_ave_S              =   3.0848695914091E-01
(PID.TID 0000.0001) %MON land_grdW_ave_T              =   5.6409347582765E-01
(PID.TID 0000.0001) %MON land_grdW_ave_N              =   4.9287281696425E-01
(PID.TID 0000.0001) %MON land_grdW_min_S              =   2.7948029129636E-02
(PID.TID 0000.0001) %MON land_grdW_min_T              =   0.0000000000000E+00
(PID.TID 0000.0001) %MON land_grdW_min_N              =   0.0000000000000E+00
(PID.TID 0000.0001) // =======================================================
(PID.TID 0000.0001) // End MONITOR Land statistics
(PID.TID 0000.0001) // =======================================================
(PID.TID 0000.0001) // =======================================================
(PID.TID 0000.0001) // Begin MONITOR Therm.SeaIce statistics
(PID.TID 0000.0001) // =======================================================
(PID.TID 0000.0001) %MON thSI_time_sec                =   1.3500000000000E+04
(PID.TID 0000.0001) %MON thSI_Ice_Area_G              =   2.2994857258590E+11
(PID.TID 0000.0001) %MON thSI_Ice_Area_S              =   0.0000000000000E+00
(PID.TID 0000.0001) %MON thSI_Ice_Area_N              =   2.2994857258590E+11
(PID.TID 0000.0001) %MON thSI_IceH_ave_G              =   1.1358047259730E-01
(PID.TID 0000.0001) %MON thSI_IceH_ave_S              =   0.0000000000000E+00
(PID.TID 0000.0001) %MON thSI_IceH_ave_N              =   1.1358047259730E-01
(PID.TID 0000.0001) %MON thSI_IceH_max_S              =   0.0000000000000E+00
(PID.TID 0000.0001) %MON thSI_IceH_max_N              =   1.4703414256036E-01
(PID.TID 0000.0001) %MON thSI_SnwH_ave_G              =   0.0000000000000E+00
(PID.TID 0000.0001) %MON thSI_SnwH_ave_S              =   0.0000000000000E+00
(PID.TID 0000.0001) %MON thSI_SnwH_ave_N              =   0.0000000000000E+00
(PID.TID 0000.0001) %MON thSI_SnwH_max_S              =   0.0000000000000E+00
(PID.TID 0000.0001) %MON thSI_SnwH_max_N              =   0.0000000000000E+00
(PID.TID 0000.0001) %MON thSI_Tsrf_ave_G              =  -8.0922600635868E+00
(PID.TID 0000.0001) %MON thSI_Tsrf_ave_S              =   0.0000000000000E+00
(PID.TID 0000.0001) %MON thSI_Tsrf_ave_N              =  -8.0922600635868E+00
(PID.TID 0000.0001) %MON thSI_Tsrf_min_S              =   0.0000000000000E+00
(PID.TID 0000.0001) %MON thSI_Tsrf_min_N              =  -9.4175095673594E+00
(PID.TID 0000.0001) %MON thSI_Tsrf_max_S              =   0.0000000000000E+00
(PID.TID 0000.0001) %MON thSI_Tsrf_max_N              =  -3.0627217362204E+00
(PID.TID 0000.0001) %MON thSI_Tic1_ave_G              =  -6.8043285775768E+00
(PID.TID 0000.0001) %MON thSI_Tic1_ave_S              =   0.0000000000000E+00
(PID.TID 0000.0001) %MON thSI_Tic1_ave_N              =  -6.8043285775768E+00
(PID.TID 0000.0001) %MON thSI_Tic1_min_S              =   0.0000000000000E+00
(PID.TID 0000.0001) %MON thSI_Tic1_min_N              =  -7.1064196962033E+00
(PID.TID 0000.0001) %MON thSI_Tic1_max_S              =   0.0000000000000E+00
(PID.TID 0000.0001) %MON thSI_Tic1_max_N              =  -2.7006646014391E+00
(PID.TID 0000.0001) %MON thSI_Tic2_ave_G              =  -3.2775494815696E+00
(PID.TID 0000.0001) %MON thSI_Tic2_ave_S              =   0.0000000000000E+00
(PID.TID 0000.0001) %MON thSI_Tic2_ave_N              =  -3.2775494815696E+00
(PID.TID 0000.0001) %MON thSI_Tic2_min_S              =   0.0000000000000E+00
(PID.TID 0000.0001) %MON thSI_Tic2_min_N              =  -3.3895283352486E+00
(PID.TID 0000.0001) %MON thSI_Tic2_max_S              =   0.0000000000000E+00
(PID.TID 0000.0001) %MON thSI_Tic2_max_N              =  -1.9771927864977E+00
(PID.TID 0000.0001) %MON thSI_TotEnerg_G              =  -8.0695271096542E+18
(PID.TID 0000.0001) // =======================================================
(PID.TID 0000.0001) // End MONITOR Therm.SeaIce statistics
(PID.TID 0000.0001) // =======================================================
 cg2d: Sum(rhs),rhsMax =  -1.51339918375015E-09  1.73491294289108E+04
(PID.TID 0000.0001)      cg2d_init_res =   1.00849150854978E+04
(PID.TID 0000.0001)      cg2d_iters(min,last) =      -1      16
(PID.TID 0000.0001)      cg2d_last_res =   6.78880176785083E-11
(PID.TID 0000.0001) // =======================================================
(PID.TID 0000.0001) // Begin MONITOR dynamic field statistics
(PID.TID 0000.0001) // =======================================================
(PID.TID 0000.0001) %MON time_tsnumber                =                    31
(PID.TID 0000.0001) %MON time_secondsf                =   1.3950000000000E+04
(PID.TID 0000.0001) %MON dynstat_eta_max              =   3.1266946607443E+03
(PID.TID 0000.0001) %MON dynstat_eta_min              =  -7.4366214803270E+02
(PID.TID 0000.0001) %MON dynstat_eta_mean             =  -9.6394546686094E-14
(PID.TID 0000.0001) %MON dynstat_eta_sd               =   4.4001875723647E+02
(PID.TID 0000.0001) %MON dynstat_eta_del2             =   4.3274357372126E+00
(PID.TID 0000.0001) %MON dynstat_uvel_max             =   6.4712639610231E+00
(PID.TID 0000.0001) %MON dynstat_uvel_min             =  -5.3855692771486E+00
(PID.TID 0000.0001) %MON dynstat_uvel_mean            =   5.4082808387881E-02
(PID.TID 0000.0001) %MON dynstat_uvel_sd              =   7.8103568101784E-01
(PID.TID 0000.0001) %MON dynstat_uvel_del2            =   1.5456518774351E-03
(PID.TID 0000.0001) %MON dynstat_vvel_max             =   5.1254473626250E+00
(PID.TID 0000.0001) %MON dynstat_vvel_min             =  -6.4156312037249E+00
(PID.TID 0000.0001) %MON dynstat_vvel_mean            =   1.7973260775642E-02
(PID.TID 0000.0001) %MON dynstat_vvel_sd              =   8.2628557112590E-01
(PID.TID 0000.0001) %MON dynstat_vvel_del2            =   1.5832413759929E-03
(PID.TID 0000.0001) %MON dynstat_wvel_max             =   2.5247286153413E-01
(PID.TID 0000.0001) %MON dynstat_wvel_min             =  -2.0534399230677E-01
(PID.TID 0000.0001) %MON dynstat_wvel_mean            =   4.5527659250704E-04
(PID.TID 0000.0001) %MON dynstat_wvel_sd              =   1.5446333980953E-02
(PID.TID 0000.0001) %MON dynstat_wvel_del2            =   1.4695595298158E-04
(PID.TID 0000.0001) %MON dynstat_theta_max            =   4.3939117274686E+02
(PID.TID 0000.0001) %MON dynstat_theta_min            =   2.8235839255215E+02
(PID.TID 0000.0001) %MON dynstat_theta_mean           =   3.3167265306440E+02
(PID.TID 0000.0001) %MON dynstat_theta_sd             =   4.7465188622359E+01
(PID.TID 0000.0001) %MON dynstat_theta_del2           =   2.6556067051924E-03
(PID.TID 0000.0001) %MON dynstat_salt_max             =   4.7693043226768E+00
(PID.TID 0000.0001) %MON dynstat_salt_min             =  -2.4155007453496E-02
(PID.TID 0000.0001) %MON dynstat_salt_mean            =   1.1048845000977E-01
(PID.TID 0000.0001) %MON dynstat_salt_sd              =   4.2806893687852E-01
(PID.TID 0000.0001) %MON dynstat_salt_del2            =   1.2555279853611E-03
(PID.TID 0000.0001) %MON trAdv_CFL_u_max              =   9.1346254287826E-03
(PID.TID 0000.0001) %MON trAdv_CFL_v_max              =   9.1131374501377E-03
(PID.TID 0000.0001) %MON trAdv_CFL_w_max              =   8.0838047005690E-03
(PID.TID 0000.0001) %MON advcfl_uvel_max              =   9.1897171083165E-03
(PID.TID 0000.0001) %MON advcfl_vvel_max              =   9.1451461615112E-03
(PID.TID 0000.0001) %MON advcfl_wvel_max              =   4.1313740978313E-03
(PID.TID 0000.0001) %MON advcfl_W_hf_max              =   8.0838047005690E-03
(PID.TID 0000.0001) %MON am_eta_mean                  =  -1.4628239801791E+10
(PID.TID 0000.0001) %MON am_uZo_mean                  =   1.4435530134257E+10
(PID.TID 0000.0001) %MON am_tot_mean                  =  -1.9270966753401E+08
(PID.TID 0000.0001) %MON pe_b_mean                    =  -9.4644840558859E-01
(PID.TID 0000.0001) %MON ke_max                       =   2.1488090877659E+01
(PID.TID 0000.0001) %MON ke_mean                      =   6.4413894652801E-01
(PID.TID 0000.0001) %MON ke_vol                       =   4.9523908919847E+19
(PID.TID 0000.0001) %MON vort_r_min                   =  -2.4300260175300E-05
(PID.TID 0000.0001) %MON vort_r_max                   =   1.8103915976772E-05
(PID.TID 0000.0001) %MON vort_a_mean                  =   6.7242814765296E-08
(PID.TID 0000.0001) %MON vort_a_sd                    =   8.4007721591648E-05
(PID.TID 0000.0001) %MON vort_p_mean                  =   6.8939476587138E-08
(PID.TID 0000.0001) %MON vort_p_sd                    =   9.1942655516425E-05
(PID.TID 0000.0001) %MON surfExpan_theta_mean         =  -4.2171868906874E-02
(PID.TID 0000.0001) %MON surfExpan_salt_mean          =  -1.5316211067026E-03
(PID.TID 0000.0001) %MON surfExpan_Heat_mean          =   3.6619890552370E+00
(PID.TID 0000.0001) %MON En_Budget_T2PE_mean          =  -6.8324752234817E+00
(PID.TID 0000.0001) // =======================================================
(PID.TID 0000.0001) // End MONITOR dynamic field statistics
(PID.TID 0000.0001) // =======================================================
(PID.TID 0000.0001) // =======================================================
(PID.TID 0000.0001) // Begin MONITOR Land statistics
(PID.TID 0000.0001) // =======================================================
(PID.TID 0000.0001) %MON land_time_sec                =   1.3950000000000E+04
(PID.TID 0000.0001) %MON land_SnwH_ave_G              =   1.5321765074702E-01
(PID.TID 0000.0001) %MON land_SnwH_ave_S              =   5.5903410690416E-01
(PID.TID 0000.0001) %MON land_SnwH_ave_T              =   0.0000000000000E+00
(PID.TID 0000.0001) %MON land_SnwH_ave_N              =   1.2388750616313E-01
(PID.TID 0000.0001) %MON land_SnwH_max_S              =   9.9998030039603E-01
(PID.TID 0000.0001) %MON land_SnwH_max_T              =   0.0000000000000E+00
(PID.TID 0000.0001) %MON land_SnwH_max_N              =   9.9999745565227E-01
(PID.TID 0000.0001) %MON land_Tsrf_ave_G              =  -8.4732327436391E+00
(PID.TID 0000.0001) %MON land_Tsrf_ave_S              =  -6.8624941533504E+00
(PID.TID 0000.0001) %MON land_Tsrf_ave_T              =   9.8759394566268E+00
(PID.TID 0000.0001) %MON land_Tsrf_ave_N              =  -2.1248784083360E+01
(PID.TID 0000.0001) %MON land_Tsrf_min_S              =  -3.1993077587417E+01
(PID.TID 0000.0001) %MON land_Tsrf_min_T              =  -3.0397691740278E+00
(PID.TID 0000.0001) %MON land_Tsrf_min_N              =  -5.0426352195401E+01
(PID.TID 0000.0001) %MON land_Tsrf_max_S              =   1.9983139428495E+01
(PID.TID 0000.0001) %MON land_Tsrf_max_T              =   1.9917711960945E+01
(PID.TID 0000.0001) %MON land_Tsrf_max_N              =   7.8663682025126E+00
(PID.TID 0000.0001) %MON land_Tgr1_ave_G              =  -7.3865689908266E+00
(PID.TID 0000.0001) %MON land_Tgr1_ave_S              =  -7.2657826094534E+00
(PID.TID 0000.0001) %MON land_Tgr1_ave_T              =   9.8759394566268E+00
(PID.TID 0000.0001) %MON land_Tgr1_ave_N              =  -1.8953146816503E+01
(PID.TID 0000.0001) %MON land_Tgr1_min_S              =  -3.9294538951419E+01
(PID.TID 0000.0001) %MON land_Tgr1_min_T              =  -3.0397691740278E+00
(PID.TID 0000.0001) %MON land_Tgr1_min_N              =  -5.4566311265728E+01
(PID.TID 0000.0001) %MON land_Tgr1_max_S              =   1.9983139428495E+01
(PID.TID 0000.0001) %MON land_Tgr1_max_T              =   1.9917711960945E+01
(PID.TID 0000.0001) %MON land_Tgr1_max_N              =   7.8663682025126E+00
(PID.TID 0000.0001) %MON land_Tgr2_ave_G              =   4.2026801824339E+00
(PID.TID 0000.0001) %MON land_Tgr2_ave_S              =  -1.8725492460528E+01
(PID.TID 0000.0001) %MON land_Tgr2_ave_T              =   2.2008264433232E+01
(PID.TID 0000.0001) %MON land_Tgr2_ave_N              =  -2.4960582515621E-01
(PID.TID 0000.0001) %MON land_Tgr2_min_S              =  -6.4748913851887E+01
(PID.TID 0000.0001) %MON land_Tgr2_min_T              =  -9.7032734642466E+00
(PID.TID 0000.0001) %MON land_Tgr2_min_N              =  -4.0200983711251E+01
(PID.TID 0000.0001) %MON land_Tgr2_max_S              =   2.3359606645416E+01
(PID.TID 0000.0001) %MON land_Tgr2_max_T              =   3.1349142519809E+01
(PID.TID 0000.0001) %MON land_Tgr2_max_N              =   2.9818390739456E+01
(PID.TID 0000.0001) %MON land_TotEnerg_G              =  -6.3588087395420E+21
(PID.TID 0000.0001) %MON land_TotEnerg_S              =  -5.0024376018342E+21
(PID.TID 0000.0001) %MON land_TotEnerg_T              =   7.2739176619902E+21
(PID.TID 0000.0001) %MON land_TotEnerg_N              =  -8.6302887996979E+21
(PID.TID 0000.0001) %MON land_grdW_ave_G              =   4.8671416325669E-01
(PID.TID 0000.0001) %MON land_grdW_ave_S              =   3.0847953557520E-01
(PID.TID 0000.0001) %MON land_grdW_ave_T              =   5.6407584990529E-01
(PID.TID 0000.0001) %MON land_grdW_ave_N              =   4.9287253130021E-01
(PID.TID 0000.0001) %MON land_grdW_min_S              =   2.8034666414312E-02
(PID.TID 0000.0001) %MON land_grdW_min_T              =   0.0000000000000E+00
(PID.TID 0000.0001) %MON land_grdW_min_N              =   0.0000000000000E+00
(PID.TID 0000.0001) // =======================================================
(PID.TID 0000.0001) // End MONITOR Land statistics
(PID.TID 0000.0001) // =======================================================
(PID.TID 0000.0001) // =======================================================
(PID.TID 0000.0001) // Begin MONITOR Therm.SeaIce statistics
(PID.TID 0000.0001) // =======================================================
(PID.TID 0000.0001) %MON thSI_time_sec                =   1.3950000000000E+04
(PID.TID 0000.0001) %MON thSI_Ice_Area_G              =   2.3222313691251E+11
(PID.TID 0000.0001) %MON thSI_Ice_Area_S              =   0.0000000000000E+00
(PID.TID 0000.0001) %MON thSI_Ice_Area_N              =   2.3222313691251E+11
(PID.TID 0000.0001) %MON thSI_IceH_ave_G              =   1.1299224708440E-01
(PID.TID 0000.0001) %MON thSI_IceH_ave_S              =   0.0000000000000E+00
(PID.TID 0000.0001) %MON thSI_IceH_ave_N              =   1.1299224708440E-01
(PID.TID 0000.0001) %MON thSI_IceH_max_S              =   0.0000000000000E+00
(PID.TID 0000.0001) %MON thSI_IceH_max_N              =   1.4716701665904E-01
(PID.TID 0000.0001) %MON thSI_SnwH_ave_G              =   0.0000000000000E+00
(PID.TID 0000.0001) %MON thSI_SnwH_ave_S              =   0.0000000000000E+00
(PID.TID 0000.0001) %MON thSI_SnwH_ave_N              =   0.0000000000000E+00
(PID.TID 0000.0001) %MON thSI_SnwH_max_S              =   0.0000000000000E+00
(PID.TID 0000.0001) %MON thSI_SnwH_max_N              =   0.0000000000000E+00
(PID.TID 0000.0001) %MON thSI_Tsrf_ave_G              =  -8.0890592072178E+00
(PID.TID 0000.0001) %MON thSI_Tsrf_ave_S              =   0.0000000000000E+00
(PID.TID 0000.0001) %MON thSI_Tsrf_ave_N              =  -8.0890592072178E+00
(PID.TID 0000.0001) %MON thSI_Tsrf_min_S              =   0.0000000000000E+00
(PID.TID 0000.0001) %MON thSI_Tsrf_min_N              =  -9.4674892955739E+00
(PID.TID 0000.0001) %MON thSI_Tsrf_max_S              =   0.0000000000000E+00
(PID.TID 0000.0001) %MON thSI_Tsrf_max_N              =  -3.0904458960954E+00
(PID.TID 0000.0001) %MON thSI_Tic1_ave_G              =  -6.8473099130625E+00
(PID.TID 0000.0001) %MON thSI_Tic1_ave_S              =   0.0000000000000E+00
(PID.TID 0000.0001) %MON thSI_Tic1_ave_N              =  -6.8473099130625E+00
(PID.TID 0000.0001) %MON thSI_Tic1_min_S              =   0.0000000000000E+00
(PID.TID 0000.0001) %MON thSI_Tic1_min_N              =  -7.1683375713092E+00
(PID.TID 0000.0001) %MON thSI_Tic1_max_S              =   0.0000000000000E+00
(PID.TID 0000.0001) %MON thSI_Tic1_max_N              =  -2.7222192233642E+00
(PID.TID 0000.0001) %MON thSI_Tic2_ave_G              =  -3.2992029418677E+00
(PID.TID 0000.0001) %MON thSI_Tic2_ave_S              =   0.0000000000000E+00
(PID.TID 0000.0001) %MON thSI_Tic2_ave_N              =  -3.2992029418677E+00
(PID.TID 0000.0001) %MON thSI_Tic2_min_S              =   0.0000000000000E+00
(PID.TID 0000.0001) %MON thSI_Tic2_min_N              =  -3.4122833892766E+00
(PID.TID 0000.0001) %MON thSI_Tic2_max_S              =   0.0000000000000E+00
(PID.TID 0000.0001) %MON thSI_Tic2_max_N              =  -1.9844374754081E+00
(PID.TID 0000.0001) %MON thSI_TotEnerg_G              =  -8.1088910235828E+18
(PID.TID 0000.0001) // =======================================================
(PID.TID 0000.0001) // End MONITOR Therm.SeaIce statistics
(PID.TID 0000.0001) // =======================================================
 cg2d: Sum(rhs),rhsMax =  -1.16415321826935E-09  1.70727604480292E+04
(PID.TID 0000.0001)      cg2d_init_res =   9.90954908276233E+03
(PID.TID 0000.0001)      cg2d_iters(min,last) =      -1      16
(PID.TID 0000.0001)      cg2d_last_res =   6.77276820525053E-11
(PID.TID 0000.0001) // =======================================================
(PID.TID 0000.0001) // Begin MONITOR dynamic field statistics
(PID.TID 0000.0001) // =======================================================
(PID.TID 0000.0001) %MON time_tsnumber                =                    32
(PID.TID 0000.0001) %MON time_secondsf                =   1.4400000000000E+04
(PID.TID 0000.0001) %MON dynstat_eta_max              =   3.0510520814720E+03
(PID.TID 0000.0001) %MON dynstat_eta_min              =  -7.4669376144208E+02
(PID.TID 0000.0001) %MON dynstat_eta_mean             =   1.2852606224812E-14
(PID.TID 0000.0001) %MON dynstat_eta_sd               =   4.3353142062348E+02
(PID.TID 0000.0001) %MON dynstat_eta_del2             =   4.3434711265190E+00
(PID.TID 0000.0001) %MON dynstat_uvel_max             =   6.3253967832293E+00
(PID.TID 0000.0001) %MON dynstat_uvel_min             =  -5.3853871846884E+00
(PID.TID 0000.0001) %MON dynstat_uvel_mean            =   6.1096577186794E-02
(PID.TID 0000.0001) %MON dynstat_uvel_sd              =   7.7439508540214E-01
(PID.TID 0000.0001) %MON dynstat_uvel_del2            =   1.5763562616320E-03
(PID.TID 0000.0001) %MON dynstat_vvel_max             =   5.0090786003031E+00
(PID.TID 0000.0001) %MON dynstat_vvel_min             =  -6.2384197938004E+00
(PID.TID 0000.0001) %MON dynstat_vvel_mean            =   1.7658355207364E-02
(PID.TID 0000.0001) %MON dynstat_vvel_sd              =   8.1972878462781E-01
(PID.TID 0000.0001) %MON dynstat_vvel_del2            =   1.6041246426519E-03
(PID.TID 0000.0001) %MON dynstat_wvel_max             =   2.4351996684116E-01
(PID.TID 0000.0001) %MON dynstat_wvel_min             =  -1.9971030615678E-01
(PID.TID 0000.0001) %MON dynstat_wvel_mean            =   4.1791512584483E-04
(PID.TID 0000.0001) %MON dynstat_wvel_sd              =   1.5250681338704E-02
(PID.TID 0000.0001) %MON dynstat_wvel_del2            =   1.4436181180564E-04
(PID.TID 0000.0001) %MON dynstat_theta_max            =   4.3928689310612E+02
(PID.TID 0000.0001) %MON dynstat_theta_min            =   2.8214487123786E+02
(PID.TID 0000.0001) %MON dynstat_theta_mean           =   3.3167042447995E+02
(PID.TID 0000.0001) %MON dynstat_theta_sd             =   4.7467256555355E+01
(PID.TID 0000.0001) %MON dynstat_theta_del2           =   2.7199957845920E-03
(PID.TID 0000.0001) %MON dynstat_salt_max             =   4.8042142072724E+00
(PID.TID 0000.0001) %MON dynstat_salt_min             =  -2.6453131097631E-02
(PID.TID 0000.0001) %MON dynstat_salt_mean            =   1.1379129998444E-01
(PID.TID 0000.0001) %MON dynstat_salt_sd              =   4.3937645527925E-01
(PID.TID 0000.0001) %MON dynstat_salt_del2            =   1.2828066723633E-03
(PID.TID 0000.0001) %MON trAdv_CFL_u_max              =   8.9288708005380E-03
(PID.TID 0000.0001) %MON trAdv_CFL_v_max              =   8.8612467907062E-03
(PID.TID 0000.0001) %MON trAdv_CFL_w_max              =   8.3489353728580E-03
(PID.TID 0000.0001) %MON advcfl_uvel_max              =   8.9825739431810E-03
(PID.TID 0000.0001) %MON advcfl_vvel_max              =   8.8925405808933E-03
(PID.TID 0000.0001) %MON advcfl_wvel_max              =   4.1781887493921E-03
(PID.TID 0000.0001) %MON advcfl_W_hf_max              =   8.3489353728580E-03
(PID.TID 0000.0001) %MON am_eta_mean                  =  -1.5169902978110E+10
(PID.TID 0000.0001) %MON am_uZo_mean                  =   1.4968004911910E+10
(PID.TID 0000.0001) %MON am_tot_mean                  =  -2.0189806620058E+08
(PID.TID 0000.0001) %MON pe_b_mean                    =  -9.4424536510602E-01
(PID.TID 0000.0001) %MON ke_max                       =   2.0562469833804E+01
(PID.TID 0000.0001) %MON ke_mean                      =   6.3403329625784E-01
(PID.TID 0000.0001) %MON ke_vol                       =   4.9523908919847E+19
(PID.TID 0000.0001) %MON vort_r_min                   =  -2.4645641185916E-05
(PID.TID 0000.0001) %MON vort_r_max                   =   1.7953784176956E-05
(PID.TID 0000.0001) %MON vort_a_mean                  =   6.7242814765375E-08
(PID.TID 0000.0001) %MON vort_a_sd                    =   8.4009870441765E-05
(PID.TID 0000.0001) %MON vort_p_mean                  =   6.8939477964029E-08
(PID.TID 0000.0001) %MON vort_p_sd                    =   9.1935267344225E-05
(PID.TID 0000.0001) %MON surfExpan_theta_mean         =  -3.8795507704473E-02
(PID.TID 0000.0001) %MON surfExpan_salt_mean          =  -1.5960440618070E-03
(PID.TID 0000.0001) %MON surfExpan_Heat_mean          =   3.3184063980671E+00
(PID.TID 0000.0001) %MON En_Budget_T2PE_mean          =  -6.2351780779794E+00
(PID.TID 0000.0001) // =======================================================
(PID.TID 0000.0001) // End MONITOR dynamic field statistics
(PID.TID 0000.0001) // =======================================================
(PID.TID 0000.0001) // =======================================================
(PID.TID 0000.0001) // Begin MONITOR Land statistics
(PID.TID 0000.0001) // =======================================================
(PID.TID 0000.0001) %MON land_time_sec                =   1.4400000000000E+04
(PID.TID 0000.0001) %MON land_SnwH_ave_G              =   1.5321669416741E-01
(PID.TID 0000.0001) %MON land_SnwH_ave_S              =   5.5903316197780E-01
(PID.TID 0000.0001) %MON land_SnwH_ave_T              =   0.0000000000000E+00
(PID.TID 0000.0001) %MON land_SnwH_ave_N              =   1.2388590702754E-01
(PID.TID 0000.0001) %MON land_SnwH_max_S              =   9.9997964027553E-01
(PID.TID 0000.0001) %MON land_SnwH_max_T              =   0.0000000000000E+00
(PID.TID 0000.0001) %MON land_SnwH_max_N              =   9.9999737480754E-01
(PID.TID 0000.0001) %MON land_Tsrf_ave_G              =  -8.4949594941078E+00
(PID.TID 0000.0001) %MON land_Tsrf_ave_S              =  -6.8641276223221E+00
(PID.TID 0000.0001) %MON land_Tsrf_ave_T              =   9.8273998835401E+00
(PID.TID 0000.0001) %MON land_Tsrf_ave_N              =  -2.1259124157523E+01
(PID.TID 0000.0001) %MON land_Tsrf_min_S              =  -3.1972091833014E+01
(PID.TID 0000.0001) %MON land_Tsrf_min_T              =  -2.9496415611001E+00
(PID.TID 0000.0001) %MON land_Tsrf_min_N              =  -5.0443277699740E+01
(PID.TID 0000.0001) %MON land_Tsrf_max_S              =   1.9940874284766E+01
(PID.TID 0000.0001) %MON land_Tsrf_max_T              =   1.9848560062070E+01
(PID.TID 0000.0001) %MON land_Tsrf_max_N              =   7.7871882212003E+00
(PID.TID 0000.0001) %MON land_Tgr1_ave_G              =  -7.4126433747495E+00
(PID.TID 0000.0001) %MON land_Tgr1_ave_S              =  -7.2774537663384E+00
(PID.TID 0000.0001) %MON land_Tgr1_ave_T              =   9.8273998835401E+00
(PID.TID 0000.0001) %MON land_Tgr1_ave_N              =  -1.8968891926883E+01
(PID.TID 0000.0001) %MON land_Tgr1_min_S              =  -3.9303695729199E+01
(PID.TID 0000.0001) %MON land_Tgr1_min_T              =  -2.9496415611001E+00
(PID.TID 0000.0001) %MON land_Tgr1_min_N              =  -5.4552135697867E+01
(PID.TID 0000.0001) %MON land_Tgr1_max_S              =   1.9940874284766E+01
(PID.TID 0000.0001) %MON land_Tgr1_max_T              =   1.9848560062070E+01
(PID.TID 0000.0001) %MON land_Tgr1_max_N              =   7.7871882212003E+00
(PID.TID 0000.0001) %MON land_Tgr2_ave_G              =   4.2025023641736E+00
(PID.TID 0000.0001) %MON land_Tgr2_ave_S              =  -1.8725300465788E+01
(PID.TID 0000.0001) %MON land_Tgr2_ave_T              =   2.2008068553503E+01
(PID.TID 0000.0001) %MON land_Tgr2_ave_N              =  -2.4989154758291E-01
(PID.TID 0000.0001) %MON land_Tgr2_min_S              =  -6.4748485066369E+01
(PID.TID 0000.0001) %MON land_Tgr2_min_T              =  -9.7031881336832E+00
(PID.TID 0000.0001) %MON land_Tgr2_min_N              =  -4.0201217282818E+01
(PID.TID 0000.0001) %MON land_Tgr2_max_S              =   2.3359532766694E+01
(PID.TID 0000.0001) %MON land_Tgr2_max_T              =   3.1348696381730E+01
(PID.TID 0000.0001) %MON land_Tgr2_max_N              =   2.9817834044171E+01
(PID.TID 0000.0001) %MON land_TotEnerg_G              =  -6.3598158539356E+21
(PID.TID 0000.0001) %MON land_TotEnerg_S              =  -5.0024552533964E+21
(PID.TID 0000.0001) %MON land_TotEnerg_T              =   7.2734587677253E+21
(PID.TID 0000.0001) %MON land_TotEnerg_N              =  -8.6308193682646E+21
(PID.TID 0000.0001) %MON land_grdW_ave_G              =   4.8670696053249E-01
(PID.TID 0000.0001) %MON land_grdW_ave_S              =   3.0847214996675E-01
(PID.TID 0000.0001) %MON land_grdW_ave_T              =   5.6405837716004E-01
(PID.TID 0000.0001) %MON land_grdW_ave_N              =   4.9287224592058E-01
(PID.TID 0000.0001) %MON land_grdW_min_S              =   2.8121006700751E-02
(PID.TID 0000.0001) %MON land_grdW_min_T              =   0.0000000000000E+00
(PID.TID 0000.0001) %MON land_grdW_min_N              =   0.0000000000000E+00
(PID.TID 0000.0001) // =======================================================
(PID.TID 0000.0001) // End MONITOR Land statistics
(PID.TID 0000.0001) // =======================================================
(PID.TID 0000.0001) // =======================================================
(PID.TID 0000.0001) // Begin MONITOR Therm.SeaIce statistics
(PID.TID 0000.0001) // =======================================================
(PID.TID 0000.0001) %MON thSI_time_sec                =   1.4400000000000E+04
(PID.TID 0000.0001) %MON thSI_Ice_Area_G              =   2.3443239994699E+11
(PID.TID 0000.0001) %MON thSI_Ice_Area_S              =   0.0000000000000E+00
(PID.TID 0000.0001) %MON thSI_Ice_Area_N              =   2.3443239994699E+11
(PID.TID 0000.0001) %MON thSI_IceH_ave_G              =   1.1245009423523E-01
(PID.TID 0000.0001) %MON thSI_IceH_ave_S              =   0.0000000000000E+00
(PID.TID 0000.0001) %MON thSI_IceH_ave_N              =   1.1245009423523E-01
(PID.TID 0000.0001) %MON thSI_IceH_max_S              =   0.0000000000000E+00
(PID.TID 0000.0001) %MON thSI_IceH_max_N              =   1.4730208020100E-01
(PID.TID 0000.0001) %MON thSI_SnwH_ave_G              =   0.0000000000000E+00
(PID.TID 0000.0001) %MON thSI_SnwH_ave_S              =   0.0000000000000E+00
(PID.TID 0000.0001) %MON thSI_SnwH_ave_N              =   0.0000000000000E+00
(PID.TID 0000.0001) %MON thSI_SnwH_max_S              =   0.0000000000000E+00
(PID.TID 0000.0001) %MON thSI_SnwH_max_N              =   0.0000000000000E+00
(PID.TID 0000.0001) %MON thSI_Tsrf_ave_G              =  -8.0838869500137E+00
(PID.TID 0000.0001) %MON thSI_Tsrf_ave_S              =   0.0000000000000E+00
(PID.TID 0000.0001) %MON thSI_Tsrf_ave_N              =  -8.0838869500137E+00
(PID.TID 0000.0001) %MON thSI_Tsrf_min_S              =   0.0000000000000E+00
(PID.TID 0000.0001) %MON thSI_Tsrf_min_N              =  -9.5118307950984E+00
(PID.TID 0000.0001) %MON thSI_Tsrf_max_S              =   0.0000000000000E+00
(PID.TID 0000.0001) %MON thSI_Tsrf_max_N              =  -3.1158136589856E+00
(PID.TID 0000.0001) %MON thSI_Tic1_ave_G              =  -6.8854032113172E+00
(PID.TID 0000.0001) %MON thSI_Tic1_ave_S              =   0.0000000000000E+00
(PID.TID 0000.0001) %MON thSI_Tic1_ave_N              =  -6.8854032113172E+00
(PID.TID 0000.0001) %MON thSI_Tic1_min_S              =   0.0000000000000E+00
(PID.TID 0000.0001) %MON thSI_Tic1_min_N              =  -7.2249951398871E+00
(PID.TID 0000.0001) %MON thSI_Tic1_max_S              =   0.0000000000000E+00
(PID.TID 0000.0001) %MON thSI_Tic1_max_N              =  -2.7414651860246E+00
(PID.TID 0000.0001) %MON thSI_Tic2_ave_G              =  -3.3186561515352E+00
(PID.TID 0000.0001) %MON thSI_Tic2_ave_S              =   0.0000000000000E+00
(PID.TID 0000.0001) %MON thSI_Tic2_ave_N              =  -3.3186561515352E+00
(PID.TID 0000.0001) %MON thSI_Tic2_min_S              =   0.0000000000000E+00
(PID.TID 0000.0001) %MON thSI_Tic2_min_N              =  -3.4377166755844E+00
(PID.TID 0000.0001) %MON thSI_Tic2_max_S              =   0.0000000000000E+00
(PID.TID 0000.0001) %MON thSI_Tic2_max_N              =  -1.9908455349823E+00
(PID.TID 0000.0001) %MON thSI_TotEnerg_G              =  -8.1483141308673E+18
(PID.TID 0000.0001) // =======================================================
(PID.TID 0000.0001) // End MONITOR Therm.SeaIce statistics
(PID.TID 0000.0001) // =======================================================
(PID.TID 0000.0001)   Exporting atmospheric surf fluxes at iter=        32
(PID.TID 0000.0001)   Importing  oceanic surface fields at iter=        32
 cg2d: Sum(rhs),rhsMax =   1.86264514923096E-09  1.69011938718847E+04
(PID.TID 0000.0001)      cg2d_init_res =   9.73776515883708E+03
(PID.TID 0000.0001)      cg2d_iters(min,last) =      -1      16
(PID.TID 0000.0001)      cg2d_last_res =   6.62465739367861E-11
(PID.TID 0000.0001) // =======================================================
(PID.TID 0000.0001) // Begin MONITOR dynamic field statistics
(PID.TID 0000.0001) // =======================================================
(PID.TID 0000.0001) %MON time_tsnumber                =                    33
(PID.TID 0000.0001) %MON time_secondsf                =   1.4850000000000E+04
(PID.TID 0000.0001) %MON dynstat_eta_max              =   2.9998785691426E+03
(PID.TID 0000.0001) %MON dynstat_eta_min              =  -7.5038609109764E+02
(PID.TID 0000.0001) %MON dynstat_eta_mean             =  -5.1410424899250E-14
(PID.TID 0000.0001) %MON dynstat_eta_sd               =   4.2806421374665E+02
(PID.TID 0000.0001) %MON dynstat_eta_del2             =   4.3585680583806E+00
(PID.TID 0000.0001) %MON dynstat_uvel_max             =   6.1790150484372E+00
(PID.TID 0000.0001) %MON dynstat_uvel_min             =  -5.3946313929014E+00
(PID.TID 0000.0001) %MON dynstat_uvel_mean            =   6.7958008253240E-02
(PID.TID 0000.0001) %MON dynstat_uvel_sd              =   7.6787806264580E-01
(PID.TID 0000.0001) %MON dynstat_uvel_del2            =   1.6092396989610E-03
(PID.TID 0000.0001) %MON dynstat_vvel_max             =   4.8671993251839E+00
(PID.TID 0000.0001) %MON dynstat_vvel_min             =  -6.0698242223466E+00
(PID.TID 0000.0001) %MON dynstat_vvel_mean            =   1.7705910520564E-02
(PID.TID 0000.0001) %MON dynstat_vvel_sd              =   8.1198990024233E-01
(PID.TID 0000.0001) %MON dynstat_vvel_del2            =   1.6272954378937E-03
(PID.TID 0000.0001) %MON dynstat_wvel_max             =   2.3049265516669E-01
(PID.TID 0000.0001) %MON dynstat_wvel_min             =  -1.8882438123897E-01
(PID.TID 0000.0001) %MON dynstat_wvel_mean            =   3.7754634322508E-04
(PID.TID 0000.0001) %MON dynstat_wvel_sd              =   1.5027177910880E-02
(PID.TID 0000.0001) %MON dynstat_wvel_del2            =   1.4200682851114E-04
(PID.TID 0000.0001) %MON dynstat_theta_max            =   4.3921951129781E+02
(PID.TID 0000.0001) %MON dynstat_theta_min            =   2.8193170736900E+02
(PID.TID 0000.0001) %MON dynstat_theta_mean           =   3.3166817510728E+02
(PID.TID 0000.0001) %MON dynstat_theta_sd             =   4.7469333399333E+01
(PID.TID 0000.0001) %MON dynstat_theta_del2           =   2.7833593983967E-03
(PID.TID 0000.0001) %MON dynstat_salt_max             =   4.8373567222426E+00
(PID.TID 0000.0001) %MON dynstat_salt_min             =  -2.8808101160381E-02
(PID.TID 0000.0001) %MON dynstat_salt_mean            =   1.1708292981273E-01
(PID.TID 0000.0001) %MON dynstat_salt_sd              =   4.5058434515361E-01
(PID.TID 0000.0001) %MON dynstat_salt_del2            =   1.3100854956140E-03
(PID.TID 0000.0001) %MON trAdv_CFL_u_max              =   8.7222841430677E-03
(PID.TID 0000.0001) %MON trAdv_CFL_v_max              =   9.0336790820225E-03
(PID.TID 0000.0001) %MON trAdv_CFL_w_max              =   8.6080524015398E-03
(PID.TID 0000.0001) %MON advcfl_uvel_max              =   8.7747000655790E-03
(PID.TID 0000.0001) %MON advcfl_vvel_max              =   8.8423687606409E-03
(PID.TID 0000.0001) %MON advcfl_wvel_max              =   4.1360025651654E-03
(PID.TID 0000.0001) %MON advcfl_W_hf_max              =   8.6080524015398E-03
(PID.TID 0000.0001) %MON am_eta_mean                  =  -1.5686500047113E+10
(PID.TID 0000.0001) %MON am_uZo_mean                  =   1.5475330782395E+10
(PID.TID 0000.0001) %MON am_tot_mean                  =  -2.1116926471810E+08
(PID.TID 0000.0001) %MON pe_b_mean                    =  -9.4075333847308E-01
(PID.TID 0000.0001) %MON ke_max                       =   2.0141175566068E+01
(PID.TID 0000.0001) %MON ke_mean                      =   6.2319931536426E-01
(PID.TID 0000.0001) %MON ke_vol                       =   4.9523908919847E+19
(PID.TID 0000.0001) %MON vort_r_min                   =  -2.4977486551659E-05
(PID.TID 0000.0001) %MON vort_r_max                   =   1.7761781859256E-05
(PID.TID 0000.0001) %MON vort_a_mean                  =   6.7242814765336E-08
(PID.TID 0000.0001) %MON vort_a_sd                    =   8.4011928537442E-05
(PID.TID 0000.0001) %MON vort_p_mean                  =   6.8939479094280E-08
(PID.TID 0000.0001) %MON vort_p_sd                    =   9.1928320921588E-05
(PID.TID 0000.0001) %MON surfExpan_theta_mean         =  -3.5171049615797E-02
(PID.TID 0000.0001) %MON surfExpan_salt_mean          =  -1.6496083943898E-03
(PID.TID 0000.0001) %MON surfExpan_Heat_mean          =   2.9537031463694E+00
(PID.TID 0000.0001) %MON En_Budget_T2PE_mean          =  -5.5976952251785E+00
(PID.TID 0000.0001) // =======================================================
(PID.TID 0000.0001) // End MONITOR dynamic field statistics
(PID.TID 0000.0001) // =======================================================
(PID.TID 0000.0001) // =======================================================
(PID.TID 0000.0001) // Begin MONITOR Land statistics
(PID.TID 0000.0001) // =======================================================
(PID.TID 0000.0001) %MON land_time_sec                =   1.4850000000000E+04
(PID.TID 0000.0001) %MON land_SnwH_ave_G              =   1.5321573960198E-01
(PID.TID 0000.0001) %MON land_SnwH_ave_S              =   5.5903221921962E-01
(PID.TID 0000.0001) %MON land_SnwH_ave_T              =   0.0000000000000E+00
(PID.TID 0000.0001) %MON land_SnwH_ave_N              =   1.2388431120120E-01
(PID.TID 0000.0001) %MON land_SnwH_max_S              =   9.9997897861684E-01
(PID.TID 0000.0001) %MON land_SnwH_max_T              =   0.0000000000000E+00
(PID.TID 0000.0001) %MON land_SnwH_max_N              =   9.9999729405870E-01
(PID.TID 0000.0001) %MON land_Tsrf_ave_G              =  -8.5149101027242E+00
(PID.TID 0000.0001) %MON land_Tsrf_ave_S              =  -6.8636978230430E+00
(PID.TID 0000.0001) %MON land_Tsrf_ave_T              =   9.7822563421294E+00
(PID.TID 0000.0001) %MON land_Tsrf_ave_N              =  -2.1268862946672E+01
(PID.TID 0000.0001) %MON land_Tsrf_min_S              =  -3.1946921753762E+01
(PID.TID 0000.0001) %MON land_Tsrf_min_T              =  -2.8626464358598E+00
(PID.TID 0000.0001) %MON land_Tsrf_min_N              =  -5.0453036998170E+01
(PID.TID 0000.0001) %MON land_Tsrf_max_S              =   1.9903587097654E+01
(PID.TID 0000.0001) %MON land_Tsrf_max_T              =   1.9787385092960E+01
(PID.TID 0000.0001) %MON land_Tsrf_max_N              =   7.7136186712514E+00
(PID.TID 0000.0001) %MON land_Tgr1_ave_G              =  -7.4369754392652E+00
(PID.TID 0000.0001) %MON land_Tgr1_ave_S              =  -7.2878995980635E+00
(PID.TID 0000.0001) %MON land_Tgr1_ave_T              =   9.7822563421294E+00
(PID.TID 0000.0001) %MON land_Tgr1_ave_N              =  -1.8983831308490E+01
(PID.TID 0000.0001) %MON land_Tgr1_min_S              =  -3.9312802946731E+01
(PID.TID 0000.0001) %MON land_Tgr1_min_T              =  -2.8626464358598E+00
(PID.TID 0000.0001) %MON land_Tgr1_min_N              =  -5.4537988740338E+01
(PID.TID 0000.0001) %MON land_Tgr1_max_S              =   1.9903587097654E+01
(PID.TID 0000.0001) %MON land_Tgr1_max_T              =   1.9787385092960E+01
(PID.TID 0000.0001) %MON land_Tgr1_max_N              =   7.7136186712514E+00
(PID.TID 0000.0001) %MON land_Tgr2_ave_G              =   4.2023242194140E+00
(PID.TID 0000.0001) %MON land_Tgr2_ave_S              =  -1.8725108639546E+01
(PID.TID 0000.0001) %MON land_Tgr2_ave_T              =   2.2007872080139E+01
(PID.TID 0000.0001) %MON land_Tgr2_ave_N              =  -2.5017746937766E-01
(PID.TID 0000.0001) %MON land_Tgr2_min_S              =  -6.4748056458724E+01
(PID.TID 0000.0001) %MON land_Tgr2_min_T              =  -9.7031017052872E+00
(PID.TID 0000.0001) %MON land_Tgr2_min_N              =  -4.0201450615683E+01
(PID.TID 0000.0001) %MON land_Tgr2_max_S              =   2.3359457902273E+01
(PID.TID 0000.0001) %MON land_Tgr2_max_T              =   3.1348248536275E+01
(PID.TID 0000.0001) %MON land_Tgr2_max_N              =   2.9817273679427E+01
(PID.TID 0000.0001) %MON land_TotEnerg_G              =  -6.3607795438707E+21
(PID.TID 0000.0001) %MON land_TotEnerg_S              =  -5.0024686546202E+21
(PID.TID 0000.0001) %MON land_TotEnerg_T              =   7.2730304942837E+21
(PID.TID 0000.0001) %MON land_TotEnerg_N              =  -8.6313413835342E+21
(PID.TID 0000.0001) %MON land_grdW_ave_G              =   4.8669980981500E-01
(PID.TID 0000.0001) %MON land_grdW_ave_S              =   3.0846479888414E-01
(PID.TID 0000.0001) %MON land_grdW_ave_T              =   5.6404104270985E-01
(PID.TID 0000.0001) %MON land_grdW_ave_N              =   4.9287196059751E-01
(PID.TID 0000.0001) %MON land_grdW_min_S              =   2.8207000386036E-02
(PID.TID 0000.0001) %MON land_grdW_min_T              =   0.0000000000000E+00
(PID.TID 0000.0001) %MON land_grdW_min_N              =   0.0000000000000E+00
(PID.TID 0000.0001) // =======================================================
(PID.TID 0000.0001) // End MONITOR Land statistics
(PID.TID 0000.0001) // =======================================================
(PID.TID 0000.0001) // =======================================================
(PID.TID 0000.0001) // Begin MONITOR Therm.SeaIce statistics
(PID.TID 0000.0001) // =======================================================
(PID.TID 0000.0001) %MON thSI_time_sec                =   1.4850000000000E+04
(PID.TID 0000.0001) %MON thSI_Ice_Area_G              =   2.3770907488584E+11
(PID.TID 0000.0001) %MON thSI_Ice_Area_S              =   0.0000000000000E+00
(PID.TID 0000.0001) %MON thSI_Ice_Area_N              =   2.3770907488584E+11
(PID.TID 0000.0001) %MON thSI_IceH_ave_G              =   1.1148643595472E-01
(PID.TID 0000.0001) %MON thSI_IceH_ave_S              =   0.0000000000000E+00
(PID.TID 0000.0001) %MON thSI_IceH_ave_N              =   1.1148643595472E-01
(PID.TID 0000.0001) %MON thSI_IceH_max_S              =   0.0000000000000E+00
(PID.TID 0000.0001) %MON thSI_IceH_max_N              =   1.4743898540253E-01
(PID.TID 0000.0001) %MON thSI_SnwH_ave_G              =   0.0000000000000E+00
(PID.TID 0000.0001) %MON thSI_SnwH_ave_S              =   0.0000000000000E+00
(PID.TID 0000.0001) %MON thSI_SnwH_ave_N              =   0.0000000000000E+00
(PID.TID 0000.0001) %MON thSI_SnwH_max_S              =   0.0000000000000E+00
(PID.TID 0000.0001) %MON thSI_SnwH_max_N              =   0.0000000000000E+00
(PID.TID 0000.0001) %MON thSI_Tsrf_ave_G              =  -8.0524299059546E+00
(PID.TID 0000.0001) %MON thSI_Tsrf_ave_S              =   0.0000000000000E+00
(PID.TID 0000.0001) %MON thSI_Tsrf_ave_N              =  -8.0524299059546E+00
(PID.TID 0000.0001) %MON thSI_Tsrf_min_S              =   0.0000000000000E+00
(PID.TID 0000.0001) %MON thSI_Tsrf_min_N              =  -9.5530104367906E+00
(PID.TID 0000.0001) %MON thSI_Tsrf_max_S              =   0.0000000000000E+00
(PID.TID 0000.0001) %MON thSI_Tsrf_max_N              =  -3.1396545705566E+00
(PID.TID 0000.0001) %MON thSI_Tic1_ave_G              =  -6.9158997209138E+00
(PID.TID 0000.0001) %MON thSI_Tic1_ave_S              =   0.0000000000000E+00
(PID.TID 0000.0001) %MON thSI_Tic1_ave_N              =  -6.9158997209138E+00
(PID.TID 0000.0001) %MON thSI_Tic1_min_S              =   0.0000000000000E+00
(PID.TID 0000.0001) %MON thSI_Tic1_min_N              =  -7.2768801861885E+00
(PID.TID 0000.0001) %MON thSI_Tic1_max_S              =   0.0000000000000E+00
(PID.TID 0000.0001) %MON thSI_Tic1_max_N              =  -2.7594354104343E+00
(PID.TID 0000.0001) %MON thSI_Tic2_ave_G              =  -3.3350852194148E+00
(PID.TID 0000.0001) %MON thSI_Tic2_ave_S              =   0.0000000000000E+00
(PID.TID 0000.0001) %MON thSI_Tic2_ave_N              =  -3.3350852194148E+00
(PID.TID 0000.0001) %MON thSI_Tic2_min_S              =   0.0000000000000E+00
(PID.TID 0000.0001) %MON thSI_Tic2_min_N              =  -3.4610341270594E+00
(PID.TID 0000.0001) %MON thSI_Tic2_max_S              =   0.0000000000000E+00
(PID.TID 0000.0001) %MON thSI_Tic2_max_N              =  -1.9968178458817E+00
(PID.TID 0000.0001) %MON thSI_TotEnerg_G              =  -8.1926460687733E+18
(PID.TID 0000.0001) // =======================================================
(PID.TID 0000.0001) // End MONITOR Therm.SeaIce statistics
(PID.TID 0000.0001) // =======================================================
 cg2d: Sum(rhs),rhsMax =   3.72529029846191E-09  1.67765568079387E+04
(PID.TID 0000.0001)      cg2d_init_res =   9.57593434916897E+03
(PID.TID 0000.0001)      cg2d_iters(min,last) =      -1      16
(PID.TID 0000.0001)      cg2d_last_res =   6.59449262263831E-11
(PID.TID 0000.0001) // =======================================================
(PID.TID 0000.0001) // Begin MONITOR dynamic field statistics
(PID.TID 0000.0001) // =======================================================
(PID.TID 0000.0001) %MON time_tsnumber                =                    34
(PID.TID 0000.0001) %MON time_secondsf                =   1.5300000000000E+04
(PID.TID 0000.0001) %MON dynstat_eta_max              =   3.0131907814217E+03
(PID.TID 0000.0001) %MON dynstat_eta_min              =  -7.5459965559297E+02
(PID.TID 0000.0001) %MON dynstat_eta_mean             =  -1.9278909337219E-14
(PID.TID 0000.0001) %MON dynstat_eta_sd               =   4.2362549730572E+02
(PID.TID 0000.0001) %MON dynstat_eta_del2             =   4.3720637677406E+00
(PID.TID 0000.0001) %MON dynstat_uvel_max             =   6.0347957731407E+00
(PID.TID 0000.0001) %MON dynstat_uvel_min             =  -5.4137236972257E+00
(PID.TID 0000.0001) %MON dynstat_uvel_mean            =   7.4550459790399E-02
(PID.TID 0000.0001) %MON dynstat_uvel_sd              =   7.6145673205369E-01
(PID.TID 0000.0001) %MON dynstat_uvel_del2            =   1.6444602904245E-03
(PID.TID 0000.0001) %MON dynstat_vvel_max             =   4.7079289175172E+00
(PID.TID 0000.0001) %MON dynstat_vvel_min             =  -5.9120923953071E+00
(PID.TID 0000.0001) %MON dynstat_vvel_mean            =   1.8169500164823E-02
(PID.TID 0000.0001) %MON dynstat_vvel_sd              =   8.0340258805941E-01
(PID.TID 0000.0001) %MON dynstat_vvel_del2            =   1.6531734920595E-03
(PID.TID 0000.0001) %MON dynstat_wvel_max             =   2.1436243966880E-01
(PID.TID 0000.0001) %MON dynstat_wvel_min             =  -1.7351392684080E-01
(PID.TID 0000.0001) %MON dynstat_wvel_mean            =   3.3593936067707E-04
(PID.TID 0000.0001) %MON dynstat_wvel_sd              =   1.4790563564228E-02
(PID.TID 0000.0001) %MON dynstat_wvel_del2            =   1.4011607238248E-04
(PID.TID 0000.0001) %MON dynstat_theta_max            =   4.3921101988474E+02
(PID.TID 0000.0001) %MON dynstat_theta_min            =   2.8171879444739E+02
(PID.TID 0000.0001) %MON dynstat_theta_mean           =   3.3166590793524E+02
(PID.TID 0000.0001) %MON dynstat_theta_sd             =   4.7471418255401E+01
(PID.TID 0000.0001) %MON dynstat_theta_del2           =   2.8452713412841E-03
(PID.TID 0000.0001) %MON dynstat_salt_max             =   4.8690279002130E+00
(PID.TID 0000.0001) %MON dynstat_salt_min             =  -3.1217295147062E-02
(PID.TID 0000.0001) %MON dynstat_salt_mean            =   1.2036472767569E-01
(PID.TID 0000.0001) %MON dynstat_salt_sd              =   4.6170040139396E-01
(PID.TID 0000.0001) %MON dynstat_salt_del2            =   1.3374568644094E-03
(PID.TID 0000.0001) %MON trAdv_CFL_u_max              =   8.5186776103187E-03
(PID.TID 0000.0001) %MON trAdv_CFL_v_max              =   9.1827923360159E-03
(PID.TID 0000.0001) %MON trAdv_CFL_w_max              =   8.8644235997412E-03
(PID.TID 0000.0001) %MON advcfl_uvel_max              =   8.5698970549888E-03
(PID.TID 0000.0001) %MON advcfl_vvel_max              =   8.9388843071373E-03
(PID.TID 0000.0001) %MON advcfl_wvel_max              =   3.9733075377720E-03
(PID.TID 0000.0001) %MON advcfl_W_hf_max              =   8.8644235997412E-03
(PID.TID 0000.0001) %MON am_eta_mean                  =  -1.6176391215556E+10
(PID.TID 0000.0001) %MON am_uZo_mean                  =   1.5955826637913E+10
(PID.TID 0000.0001) %MON am_tot_mean                  =  -2.2056457764374E+08
(PID.TID 0000.0001) %MON pe_b_mean                    =  -9.3624752420851E-01
(PID.TID 0000.0001) %MON ke_max                       =   2.0789328679819E+01
(PID.TID 0000.0001) %MON ke_mean                      =   6.1189655627298E-01
(PID.TID 0000.0001) %MON ke_vol                       =   4.9523908919847E+19
(PID.TID 0000.0001) %MON vort_r_min                   =  -2.5293193001707E-05
(PID.TID 0000.0001) %MON vort_r_max                   =   1.7534684905139E-05
(PID.TID 0000.0001) %MON vort_a_mean                  =   6.7242814765291E-08
(PID.TID 0000.0001) %MON vort_a_sd                    =   8.4013887978945E-05
(PID.TID 0000.0001) %MON vort_p_mean                  =   6.8939479912102E-08
(PID.TID 0000.0001) %MON vort_p_sd                    =   9.1921806979835E-05
(PID.TID 0000.0001) %MON surfExpan_theta_mean         =  -3.1454005629018E-02
(PID.TID 0000.0001) %MON surfExpan_salt_mean          =  -1.6911560163087E-03
(PID.TID 0000.0001) %MON surfExpan_Heat_mean          =   2.5838070662038E+00
(PID.TID 0000.0001) %MON En_Budget_T2PE_mean          =  -4.9474905034195E+00
(PID.TID 0000.0001) // =======================================================
(PID.TID 0000.0001) // End MONITOR dynamic field statistics
(PID.TID 0000.0001) // =======================================================
(PID.TID 0000.0001) // =======================================================
(PID.TID 0000.0001) // Begin MONITOR Land statistics
(PID.TID 0000.0001) // =======================================================
(PID.TID 0000.0001) %MON land_time_sec                =   1.5300000000000E+04
(PID.TID 0000.0001) %MON land_SnwH_ave_G              =   1.5321478734180E-01
(PID.TID 0000.0001) %MON land_SnwH_ave_S              =   5.5903127825525E-01
(PID.TID 0000.0001) %MON land_SnwH_ave_T              =   0.0000000000000E+00
(PID.TID 0000.0001) %MON land_SnwH_ave_N              =   1.2388271938537E-01
(PID.TID 0000.0001) %MON land_SnwH_max_S              =   9.9997831522937E-01
(PID.TID 0000.0001) %MON land_SnwH_max_T              =   0.0000000000000E+00
(PID.TID 0000.0001) %MON land_SnwH_max_N              =   9.9999721337172E-01
(PID.TID 0000.0001) %MON land_Tsrf_ave_G              =  -8.5330630669559E+00
(PID.TID 0000.0001) %MON land_Tsrf_ave_S              =  -6.8605990015501E+00
(PID.TID 0000.0001) %MON land_Tsrf_ave_T              =   9.7405198444902E+00
(PID.TID 0000.0001) %MON land_Tsrf_ave_N              =  -2.1278161470674E+01
(PID.TID 0000.0001) %MON land_Tsrf_min_S              =  -3.1918526319565E+01
(PID.TID 0000.0001) %MON land_Tsrf_min_T              =  -2.7787856492121E+00
(PID.TID 0000.0001) %MON land_Tsrf_min_N              =  -5.0462765161385E+01
(PID.TID 0000.0001) %MON land_Tsrf_max_S              =   1.9871068332903E+01
(PID.TID 0000.0001) %MON land_Tsrf_max_T              =   1.9733430312171E+01
(PID.TID 0000.0001) %MON land_Tsrf_max_N              =   7.6454232247300E+00
(PID.TID 0000.0001) %MON land_Tgr1_ave_G              =  -7.4596591649385E+00
(PID.TID 0000.0001) %MON land_Tgr1_ave_S              =  -7.2972280830319E+00
(PID.TID 0000.0001) %MON land_Tgr1_ave_T              =   9.7405198444902E+00
(PID.TID 0000.0001) %MON land_Tgr1_ave_N              =  -1.8998124512087E+01
(PID.TID 0000.0001) %MON land_Tgr1_min_S              =  -3.9321855944696E+01
(PID.TID 0000.0001) %MON land_Tgr1_min_T              =  -2.7787856492121E+00
(PID.TID 0000.0001) %MON land_Tgr1_min_N              =  -5.4523867201483E+01
(PID.TID 0000.0001) %MON land_Tgr1_max_S              =   1.9871068332903E+01
(PID.TID 0000.0001) %MON land_Tgr1_max_T              =   1.9733430312171E+01
(PID.TID 0000.0001) %MON land_Tgr1_max_N              =   7.6454232247300E+00
(PID.TID 0000.0001) %MON land_Tgr2_ave_G              =   4.2021457990092E+00
(PID.TID 0000.0001) %MON land_Tgr2_ave_S              =  -1.8724916964459E+01
(PID.TID 0000.0001) %MON land_Tgr2_ave_T              =   2.2007675067607E+01
(PID.TID 0000.0001) %MON land_Tgr2_ave_N              =  -2.5046353122918E-01
(PID.TID 0000.0001) %MON land_Tgr2_min_S              =  -6.4747628028202E+01
(PID.TID 0000.0001) %MON land_Tgr2_min_T              =  -9.7030142186767E+00
(PID.TID 0000.0001) %MON land_Tgr2_min_N              =  -4.0201683711251E+01
(PID.TID 0000.0001) %MON land_Tgr2_max_S              =   2.3359382141023E+01
(PID.TID 0000.0001) %MON land_Tgr2_max_T              =   3.1347799093503E+01
(PID.TID 0000.0001) %MON land_Tgr2_max_N              =   2.9816709788304E+01
(PID.TID 0000.0001) %MON land_TotEnerg_G              =  -6.3617034024815E+21
(PID.TID 0000.0001) %MON land_TotEnerg_S              =  -5.0024781913216E+21
(PID.TID 0000.0001) %MON land_TotEnerg_T              =   7.2726299355353E+21
(PID.TID 0000.0001) %MON land_TotEnerg_N              =  -8.6318551466951E+21
(PID.TID 0000.0001) %MON land_grdW_ave_G              =   4.8669270605389E-01
(PID.TID 0000.0001) %MON land_grdW_ave_S              =   3.0845747957887E-01
(PID.TID 0000.0001) %MON land_grdW_ave_T              =   5.6402383336065E-01
(PID.TID 0000.0001) %MON land_grdW_ave_N              =   4.9287167497213E-01
(PID.TID 0000.0001) %MON land_grdW_min_S              =   2.8292591440240E-02
(PID.TID 0000.0001) %MON land_grdW_min_T              =   0.0000000000000E+00
(PID.TID 0000.0001) %MON land_grdW_min_N              =   0.0000000000000E+00
(PID.TID 0000.0001) // =======================================================
(PID.TID 0000.0001) // End MONITOR Land statistics
(PID.TID 0000.0001) // =======================================================
(PID.TID 0000.0001) // =======================================================
(PID.TID 0000.0001) // Begin MONITOR Therm.SeaIce statistics
(PID.TID 0000.0001) // =======================================================
(PID.TID 0000.0001) %MON thSI_time_sec                =   1.5300000000000E+04
(PID.TID 0000.0001) %MON thSI_Ice_Area_G              =   2.4083874638162E+11
(PID.TID 0000.0001) %MON thSI_Ice_Area_S              =   0.0000000000000E+00
(PID.TID 0000.0001) %MON thSI_Ice_Area_N              =   2.4083874638162E+11
(PID.TID 0000.0001) %MON thSI_IceH_ave_G              =   1.1062044502759E-01
(PID.TID 0000.0001) %MON thSI_IceH_ave_S              =   0.0000000000000E+00
(PID.TID 0000.0001) %MON thSI_IceH_ave_N              =   1.1062044502759E-01
(PID.TID 0000.0001) %MON thSI_IceH_max_S              =   0.0000000000000E+00
(PID.TID 0000.0001) %MON thSI_IceH_max_N              =   1.4757773743672E-01
(PID.TID 0000.0001) %MON thSI_SnwH_ave_G              =   0.0000000000000E+00
(PID.TID 0000.0001) %MON thSI_SnwH_ave_S              =   0.0000000000000E+00
(PID.TID 0000.0001) %MON thSI_SnwH_ave_N              =   0.0000000000000E+00
(PID.TID 0000.0001) %MON thSI_SnwH_max_S              =   0.0000000000000E+00
(PID.TID 0000.0001) %MON thSI_SnwH_max_N              =   0.0000000000000E+00
(PID.TID 0000.0001) %MON thSI_Tsrf_ave_G              =  -8.0231306223527E+00
(PID.TID 0000.0001) %MON thSI_Tsrf_ave_S              =   0.0000000000000E+00
(PID.TID 0000.0001) %MON thSI_Tsrf_ave_N              =  -8.0231306223527E+00
(PID.TID 0000.0001) %MON thSI_Tsrf_min_S              =   0.0000000000000E+00
(PID.TID 0000.0001) %MON thSI_Tsrf_min_N              =  -9.5901328584179E+00
(PID.TID 0000.0001) %MON thSI_Tsrf_max_S              =   0.0000000000000E+00
(PID.TID 0000.0001) %MON thSI_Tsrf_max_N              =  -3.1831717488711E+00
(PID.TID 0000.0001) %MON thSI_Tic1_ave_G              =  -6.9422609759506E+00
(PID.TID 0000.0001) %MON thSI_Tic1_ave_S              =   0.0000000000000E+00
(PID.TID 0000.0001) %MON thSI_Tic1_ave_N              =  -6.9422609759506E+00
(PID.TID 0000.0001) %MON thSI_Tic1_min_S              =   0.0000000000000E+00
(PID.TID 0000.0001) %MON thSI_Tic1_min_N              =  -7.3242882609245E+00
(PID.TID 0000.0001) %MON thSI_Tic1_max_S              =   0.0000000000000E+00
(PID.TID 0000.0001) %MON thSI_Tic1_max_N              =  -2.7917488888297E+00
(PID.TID 0000.0001) %MON thSI_Tic2_ave_G              =  -3.3496890204641E+00
(PID.TID 0000.0001) %MON thSI_Tic2_ave_S              =   0.0000000000000E+00
(PID.TID 0000.0001) %MON thSI_Tic2_ave_N              =  -3.3496890204641E+00
(PID.TID 0000.0001) %MON thSI_Tic2_min_S              =   0.0000000000000E+00
(PID.TID 0000.0001) %MON thSI_Tic2_min_N              =  -3.4823799003674E+00
(PID.TID 0000.0001) %MON thSI_Tic2_max_S              =   0.0000000000000E+00
(PID.TID 0000.0001) %MON thSI_Tic2_max_N              =  -2.0066177484480E+00
(PID.TID 0000.0001) %MON thSI_TotEnerg_G              =  -8.2371165565504E+18
(PID.TID 0000.0001) // =======================================================
(PID.TID 0000.0001) // End MONITOR Therm.SeaIce statistics
(PID.TID 0000.0001) // =======================================================
 cg2d: Sum(rhs),rhsMax =  -6.98491930961609E-10  1.66898999186696E+04
(PID.TID 0000.0001)      cg2d_init_res =   9.42708613148616E+03
(PID.TID 0000.0001)      cg2d_iters(min,last) =      -1      16
(PID.TID 0000.0001)      cg2d_last_res =   6.36830591648894E-11
(PID.TID 0000.0001) // =======================================================
(PID.TID 0000.0001) // Begin MONITOR dynamic field statistics
(PID.TID 0000.0001) // =======================================================
(PID.TID 0000.0001) %MON time_tsnumber                =                    35
(PID.TID 0000.0001) %MON time_secondsf                =   1.5750000000000E+04
(PID.TID 0000.0001) %MON dynstat_eta_max              =   3.0261760278492E+03
(PID.TID 0000.0001) %MON dynstat_eta_min              =  -7.9669871667480E+02
(PID.TID 0000.0001) %MON dynstat_eta_mean             =   1.9278909337219E-14
(PID.TID 0000.0001) %MON dynstat_eta_sd               =   4.2019504179623E+02
(PID.TID 0000.0001) %MON dynstat_eta_del2             =   4.3835598265813E+00
(PID.TID 0000.0001) %MON dynstat_uvel_max             =   5.8943574860026E+00
(PID.TID 0000.0001) %MON dynstat_uvel_min             =  -5.4425983851737E+00
(PID.TID 0000.0001) %MON dynstat_uvel_mean            =   8.0763785001146E-02
(PID.TID 0000.0001) %MON dynstat_uvel_sd              =   7.5506524769753E-01
(PID.TID 0000.0001) %MON dynstat_uvel_del2            =   1.6820297357240E-03
(PID.TID 0000.0001) %MON dynstat_vvel_max             =   4.5393585569258E+00
(PID.TID 0000.0001) %MON dynstat_vvel_min             =  -5.7658665064885E+00
(PID.TID 0000.0001) %MON dynstat_vvel_mean            =   1.9093309216351E-02
(PID.TID 0000.0001) %MON dynstat_vvel_sd              =   7.9428189784786E-01
(PID.TID 0000.0001) %MON dynstat_vvel_del2            =   1.6817207233564E-03
(PID.TID 0000.0001) %MON dynstat_wvel_max             =   1.9614913506196E-01
(PID.TID 0000.0001) %MON dynstat_wvel_min             =  -1.6278451787839E-01
(PID.TID 0000.0001) %MON dynstat_wvel_mean            =   2.9449230845423E-04
(PID.TID 0000.0001) %MON dynstat_wvel_sd              =   1.4553699030195E-02
(PID.TID 0000.0001) %MON dynstat_wvel_del2            =   1.3879402976870E-04
(PID.TID 0000.0001) %MON dynstat_theta_max            =   4.3919072707778E+02
(PID.TID 0000.0001) %MON dynstat_theta_min            =   2.8150608885954E+02
(PID.TID 0000.0001) %MON dynstat_theta_mean           =   3.3166362424438E+02
(PID.TID 0000.0001) %MON dynstat_theta_sd             =   4.7473511410381E+01
(PID.TID 0000.0001) %MON dynstat_theta_del2           =   2.9055360516105E-03
(PID.TID 0000.0001) %MON dynstat_salt_max             =   4.8994753879507E+00
(PID.TID 0000.0001) %MON dynstat_salt_min             =  -3.3678029854249E-02
(PID.TID 0000.0001) %MON dynstat_salt_mean            =   1.2363681046217E-01
(PID.TID 0000.0001) %MON dynstat_salt_sd              =   4.7272627246556E-01
(PID.TID 0000.0001) %MON dynstat_salt_del2            =   1.3647822484612E-03
(PID.TID 0000.0001) %MON trAdv_CFL_u_max              =   8.3203671123151E-03
(PID.TID 0000.0001) %MON trAdv_CFL_v_max              =   9.1437214930019E-03
(PID.TID 0000.0001) %MON trAdv_CFL_w_max              =   9.1217707390216E-03
(PID.TID 0000.0001) %MON advcfl_uvel_max              =   8.3704633527401E-03
(PID.TID 0000.0001) %MON advcfl_vvel_max              =   8.8234128623940E-03
(PID.TID 0000.0001) %MON advcfl_wvel_max              =   3.7044413370794E-03
(PID.TID 0000.0001) %MON advcfl_W_hf_max              =   9.1488095848678E-03
(PID.TID 0000.0001) %MON am_eta_mean                  =  -1.6638119631189E+10
(PID.TID 0000.0001) %MON am_uZo_mean                  =   1.6407983033346E+10
(PID.TID 0000.0001) %MON am_tot_mean                  =  -2.3013659784321E+08
(PID.TID 0000.0001) %MON pe_b_mean                    =  -9.3097700118901E-01
(PID.TID 0000.0001) %MON ke_max                       =   2.1404507219128E+01
(PID.TID 0000.0001) %MON ke_mean                      =   6.0033150319344E-01
(PID.TID 0000.0001) %MON ke_vol                       =   4.9523908919847E+19
(PID.TID 0000.0001) %MON vort_r_min                   =  -2.5589745845394E-05
(PID.TID 0000.0001) %MON vort_r_max                   =   1.7280055407472E-05
(PID.TID 0000.0001) %MON vort_a_mean                  =   6.7242814765353E-08
(PID.TID 0000.0001) %MON vort_a_sd                    =   8.4015740924449E-05
(PID.TID 0000.0001) %MON vort_p_mean                  =   6.8939480359158E-08
(PID.TID 0000.0001) %MON vort_p_sd                    =   9.1915704368947E-05
(PID.TID 0000.0001) %MON surfExpan_theta_mean         =  -2.7766902547962E-02
(PID.TID 0000.0001) %MON surfExpan_salt_mean          =  -1.7196280743655E-03
(PID.TID 0000.0001) %MON surfExpan_Heat_mean          =   2.2211589358871E+00
(PID.TID 0000.0001) %MON En_Budget_T2PE_mean          =  -4.3061048615807E+00
(PID.TID 0000.0001) // =======================================================
(PID.TID 0000.0001) // End MONITOR dynamic field statistics
(PID.TID 0000.0001) // =======================================================
(PID.TID 0000.0001) // =======================================================
(PID.TID 0000.0001) // Begin MONITOR Land statistics
(PID.TID 0000.0001) // =======================================================
(PID.TID 0000.0001) %MON land_time_sec                =   1.5750000000000E+04
(PID.TID 0000.0001) %MON land_SnwH_ave_G              =   1.5321383671369E-01
(PID.TID 0000.0001) %MON land_SnwH_ave_S              =   5.5903033860557E-01
(PID.TID 0000.0001) %MON land_SnwH_ave_T              =   0.0000000000000E+00
(PID.TID 0000.0001) %MON land_SnwH_ave_N              =   1.2388113039443E-01
(PID.TID 0000.0001) %MON land_SnwH_max_S              =   9.9997764994856E-01
(PID.TID 0000.0001) %MON land_SnwH_max_T              =   0.0000000000000E+00
(PID.TID 0000.0001) %MON land_SnwH_max_N              =   9.9999713271271E-01
(PID.TID 0000.0001) %MON land_Tsrf_ave_G              =  -8.5495911218575E+00
(PID.TID 0000.0001) %MON land_Tsrf_ave_S              =  -6.8547641246192E+00
(PID.TID 0000.0001) %MON land_Tsrf_ave_T              =   9.7018966194893E+00
(PID.TID 0000.0001) %MON land_Tsrf_ave_N              =  -2.1287189419618E+01
(PID.TID 0000.0001) %MON land_Tsrf_min_S              =  -3.1887571136461E+01
(PID.TID 0000.0001) %MON land_Tsrf_min_T              =  -2.8559561058082E+00
(PID.TID 0000.0001) %MON land_Tsrf_min_N              =  -5.0471919551366E+01
(PID.TID 0000.0001) %MON land_Tsrf_max_S              =   1.9843190189703E+01
(PID.TID 0000.0001) %MON land_Tsrf_max_T              =   1.9685990008295E+01
(PID.TID 0000.0001) %MON land_Tsrf_max_N              =   7.5823864997979E+00
(PID.TID 0000.0001) %MON land_Tgr1_ave_G              =  -7.4809312515397E+00
(PID.TID 0000.0001) %MON land_Tgr1_ave_S              =  -7.3055190873917E+00
(PID.TID 0000.0001) %MON land_Tgr1_ave_T              =   9.7018966194893E+00
(PID.TID 0000.0001) %MON land_Tgr1_ave_N              =  -1.9012021002737E+01
(PID.TID 0000.0001) %MON land_Tgr1_min_S              =  -3.9330851812281E+01
(PID.TID 0000.0001) %MON land_Tgr1_min_T              =  -2.8559561058082E+00
(PID.TID 0000.0001) %MON land_Tgr1_min_N              =  -5.4509768234787E+01
(PID.TID 0000.0001) %MON land_Tgr1_max_S              =   1.9843190189703E+01
(PID.TID 0000.0001) %MON land_Tgr1_max_T              =   1.9685990008295E+01
(PID.TID 0000.0001) %MON land_Tgr1_max_N              =   7.5823864997979E+00
(PID.TID 0000.0001) %MON land_Tgr2_ave_G              =   4.2019671283558E+00
(PID.TID 0000.0001) %MON land_Tgr2_ave_S              =  -1.8724725424229E+01
(PID.TID 0000.0001) %MON land_Tgr2_ave_T              =   2.2007477564986E+01
(PID.TID 0000.0001) %MON land_Tgr2_ave_N              =  -2.5074972060373E-01
(PID.TID 0000.0001) %MON land_Tgr2_min_S              =  -6.4747199774016E+01
(PID.TID 0000.0001) %MON land_Tgr2_min_T              =  -9.7029257132223E+00
(PID.TID 0000.0001) %MON land_Tgr2_min_N              =  -4.0201916570959E+01
(PID.TID 0000.0001) %MON land_Tgr2_max_S              =   2.3359305572519E+01
(PID.TID 0000.0001) %MON land_Tgr2_max_T              =   3.1347348159437E+01
(PID.TID 0000.0001) %MON land_Tgr2_max_N              =   2.9816142509685E+01
(PID.TID 0000.0001) %MON land_TotEnerg_G              =  -6.3625904127652E+21
(PID.TID 0000.0001) %MON land_TotEnerg_S              =  -5.0024841508207E+21
(PID.TID 0000.0001) %MON land_TotEnerg_T              =   7.2722546003184E+21
(PID.TID 0000.0001) %MON land_TotEnerg_N              =  -8.6323608622630E+21
(PID.TID 0000.0001) %MON land_grdW_ave_G              =   4.8668564513040E-01
(PID.TID 0000.0001) %MON land_grdW_ave_S              =   3.0845018991273E-01
(PID.TID 0000.0001) %MON land_grdW_ave_T              =   5.6400673743941E-01
(PID.TID 0000.0001) %MON land_grdW_ave_N              =   4.9287138932773E-01
(PID.TID 0000.0001) %MON land_grdW_min_S              =   2.8377715951901E-02
(PID.TID 0000.0001) %MON land_grdW_min_T              =   0.0000000000000E+00
(PID.TID 0000.0001) %MON land_grdW_min_N              =   0.0000000000000E+00
(PID.TID 0000.0001) // =======================================================
(PID.TID 0000.0001) // End MONITOR Land statistics
(PID.TID 0000.0001) // =======================================================
(PID.TID 0000.0001) // =======================================================
(PID.TID 0000.0001) // Begin MONITOR Therm.SeaIce statistics
(PID.TID 0000.0001) // =======================================================
(PID.TID 0000.0001) %MON thSI_time_sec                =   1.5750000000000E+04
(PID.TID 0000.0001) %MON thSI_Ice_Area_G              =   2.4383319013664E+11
(PID.TID 0000.0001) %MON thSI_Ice_Area_S              =   0.0000000000000E+00
(PID.TID 0000.0001) %MON thSI_Ice_Area_N              =   2.4383319013664E+11
(PID.TID 0000.0001) %MON thSI_IceH_ave_G              =   1.0984117330263E-01
(PID.TID 0000.0001) %MON thSI_IceH_ave_S              =   0.0000000000000E+00
(PID.TID 0000.0001) %MON thSI_IceH_ave_N              =   1.0984117330263E-01
(PID.TID 0000.0001) %MON thSI_IceH_max_S              =   0.0000000000000E+00
(PID.TID 0000.0001) %MON thSI_IceH_max_N              =   1.4771818087099E-01
(PID.TID 0000.0001) %MON thSI_SnwH_ave_G              =   0.0000000000000E+00
(PID.TID 0000.0001) %MON thSI_SnwH_ave_S              =   0.0000000000000E+00
(PID.TID 0000.0001) %MON thSI_SnwH_ave_N              =   0.0000000000000E+00
(PID.TID 0000.0001) %MON thSI_SnwH_max_S              =   0.0000000000000E+00
(PID.TID 0000.0001) %MON thSI_SnwH_max_N              =   0.0000000000000E+00
(PID.TID 0000.0001) %MON thSI_Tsrf_ave_G              =  -7.9952294037806E+00
(PID.TID 0000.0001) %MON thSI_Tsrf_ave_S              =   0.0000000000000E+00
(PID.TID 0000.0001) %MON thSI_Tsrf_ave_N              =  -7.9952294037806E+00
(PID.TID 0000.0001) %MON thSI_Tsrf_min_S              =   0.0000000000000E+00
(PID.TID 0000.0001) %MON thSI_Tsrf_min_N              =  -9.6233997776190E+00
(PID.TID 0000.0001) %MON thSI_Tsrf_max_S              =   0.0000000000000E+00
(PID.TID 0000.0001) %MON thSI_Tsrf_max_N              =  -3.2260810283285E+00
(PID.TID 0000.0001) %MON thSI_Tic1_ave_G              =  -6.9647617675341E+00
(PID.TID 0000.0001) %MON thSI_Tic1_ave_S              =   0.0000000000000E+00
(PID.TID 0000.0001) %MON thSI_Tic1_ave_N              =  -6.9647617675341E+00
(PID.TID 0000.0001) %MON thSI_Tic1_min_S              =   0.0000000000000E+00
(PID.TID 0000.0001) %MON thSI_Tic1_min_N              =  -7.3674877145750E+00
(PID.TID 0000.0001) %MON thSI_Tic1_max_S              =   0.0000000000000E+00
(PID.TID 0000.0001) %MON thSI_Tic1_max_N              =  -2.8236667558701E+00
(PID.TID 0000.0001) %MON thSI_Tic2_ave_G              =  -3.3625493820121E+00
(PID.TID 0000.0001) %MON thSI_Tic2_ave_S              =   0.0000000000000E+00
(PID.TID 0000.0001) %MON thSI_Tic2_ave_N              =  -3.3625493820121E+00
(PID.TID 0000.0001) %MON thSI_Tic2_min_S              =   0.0000000000000E+00
(PID.TID 0000.0001) %MON thSI_Tic2_min_N              =  -3.5018898013291E+00
(PID.TID 0000.0001) %MON thSI_Tic2_max_S              =   0.0000000000000E+00
(PID.TID 0000.0001) %MON thSI_Tic2_max_N              =  -2.0170706578186E+00
(PID.TID 0000.0001) %MON thSI_TotEnerg_G              =  -8.2817140866529E+18
(PID.TID 0000.0001) // =======================================================
(PID.TID 0000.0001) // End MONITOR Therm.SeaIce statistics
(PID.TID 0000.0001) // =======================================================
 cg2d: Sum(rhs),rhsMax =   6.98491930961609E-10  1.66351302805176E+04
(PID.TID 0000.0001)      cg2d_init_res =   9.29097090948329E+03
(PID.TID 0000.0001)      cg2d_iters(min,last) =      -1      16
(PID.TID 0000.0001)      cg2d_last_res =   6.20018586058749E-11
(PID.TID 0000.0001) // =======================================================
(PID.TID 0000.0001) // Begin MONITOR dynamic field statistics
(PID.TID 0000.0001) // =======================================================
(PID.TID 0000.0001) %MON time_tsnumber                =                    36
(PID.TID 0000.0001) %MON time_secondsf                =   1.6200000000000E+04
(PID.TID 0000.0001) %MON dynstat_eta_max              =   3.0377674345061E+03
(PID.TID 0000.0001) %MON dynstat_eta_min              =  -8.5019279592521E+02
(PID.TID 0000.0001) %MON dynstat_eta_mean             =   5.7836728011656E-14
(PID.TID 0000.0001) %MON dynstat_eta_sd               =   4.1773108369556E+02
(PID.TID 0000.0001) %MON dynstat_eta_del2             =   4.3928761306747E+00
(PID.TID 0000.0001) %MON dynstat_uvel_max             =   5.7584867421658E+00
(PID.TID 0000.0001) %MON dynstat_uvel_min             =  -5.4804503255345E+00
(PID.TID 0000.0001) %MON dynstat_uvel_mean            =   8.6498033557389E-02
(PID.TID 0000.0001) %MON dynstat_uvel_sd              =   7.4862131139014E-01
(PID.TID 0000.0001) %MON dynstat_uvel_del2            =   1.7218291063165E-03
(PID.TID 0000.0001) %MON dynstat_vvel_max             =   4.5097091846182E+00
(PID.TID 0000.0001) %MON dynstat_vvel_min             =  -5.7086983404848E+00
(PID.TID 0000.0001) %MON dynstat_vvel_mean            =   2.0510537202087E-02
(PID.TID 0000.0001) %MON dynstat_vvel_sd              =   7.8489602185942E-01
(PID.TID 0000.0001) %MON dynstat_vvel_del2            =   1.7125824584294E-03
(PID.TID 0000.0001) %MON dynstat_wvel_max             =   1.7683461253401E-01
(PID.TID 0000.0001) %MON dynstat_wvel_min             =  -1.5463769379341E-01
(PID.TID 0000.0001) %MON dynstat_wvel_mean            =   2.5425298829085E-04
(PID.TID 0000.0001) %MON dynstat_wvel_sd              =   1.4326788031217E-02
(PID.TID 0000.0001) %MON dynstat_wvel_del2            =   1.3802900830160E-04
(PID.TID 0000.0001) %MON dynstat_theta_max            =   4.3915865268782E+02
(PID.TID 0000.0001) %MON dynstat_theta_min            =   2.8129357628552E+02
(PID.TID 0000.0001) %MON dynstat_theta_mean           =   3.3166132502613E+02
(PID.TID 0000.0001) %MON dynstat_theta_sd             =   4.7475613144788E+01
(PID.TID 0000.0001) %MON dynstat_theta_del2           =   2.9641456674579E-03
(PID.TID 0000.0001) %MON dynstat_salt_max             =   4.9289075742928E+00
(PID.TID 0000.0001) %MON dynstat_salt_min             =  -3.6187627425486E-02
(PID.TID 0000.0001) %MON dynstat_salt_mean            =   1.2689928349307E-01
(PID.TID 0000.0001) %MON dynstat_salt_sd              =   4.8366291362968E-01
(PID.TID 0000.0001) %MON dynstat_salt_del2            =   1.3924286154344E-03
(PID.TID 0000.0001) %MON trAdv_CFL_u_max              =   8.1284875727052E-03
(PID.TID 0000.0001) %MON trAdv_CFL_v_max              =   8.9100981966481E-03
(PID.TID 0000.0001) %MON trAdv_CFL_w_max              =   9.3841157079639E-03
(PID.TID 0000.0001) %MON advcfl_uvel_max              =   8.1775159306171E-03
(PID.TID 0000.0001) %MON advcfl_vvel_max              =   8.4900224391089E-03
(PID.TID 0000.0001) %MON advcfl_wvel_max              =   3.7839755722002E-03
(PID.TID 0000.0001) %MON advcfl_W_hf_max              =   9.7058317549852E-03
(PID.TID 0000.0001) %MON am_eta_mean                  =  -1.7070410180257E+10
(PID.TID 0000.0001) %MON am_uZo_mean                  =   1.6830462621301E+10
(PID.TID 0000.0001) %MON am_tot_mean                  =  -2.3994755895605E+08
(PID.TID 0000.0001) %MON pe_b_mean                    =  -9.2515237929421E-01
(PID.TID 0000.0001) %MON ke_max                       =   2.1963402765623E+01
(PID.TID 0000.0001) %MON ke_mean                      =   5.8865235680834E-01
(PID.TID 0000.0001) %MON ke_vol                       =   4.9523908919847E+19
(PID.TID 0000.0001) %MON vort_r_min                   =  -2.5863285333562E-05
(PID.TID 0000.0001) %MON vort_r_max                   =   1.7005302246461E-05
(PID.TID 0000.0001) %MON vort_a_mean                  =   6.7242814765291E-08
(PID.TID 0000.0001) %MON vort_a_sd                    =   8.4017479841163E-05
(PID.TID 0000.0001) %MON vort_p_mean                  =   6.8939480385778E-08
(PID.TID 0000.0001) %MON vort_p_sd                    =   9.1909982850983E-05
(PID.TID 0000.0001) %MON surfExpan_theta_mean         =  -2.4201896883431E-02
(PID.TID 0000.0001) %MON surfExpan_salt_mean          =  -1.7340530331871E-03
(PID.TID 0000.0001) %MON surfExpan_Heat_mean          =   1.8748401358029E+00
(PID.TID 0000.0001) %MON En_Budget_T2PE_mean          =  -3.6894671645125E+00
(PID.TID 0000.0001) // =======================================================
(PID.TID 0000.0001) // End MONITOR dynamic field statistics
(PID.TID 0000.0001) // =======================================================
(PID.TID 0000.0001) // =======================================================
(PID.TID 0000.0001) // Begin MONITOR Land statistics
(PID.TID 0000.0001) // =======================================================
(PID.TID 0000.0001) %MON land_time_sec                =   1.6200000000000E+04
(PID.TID 0000.0001) %MON land_SnwH_ave_G              =   1.5321289060522E-01
(PID.TID 0000.0001) %MON land_SnwH_ave_S              =   5.5902939972018E-01
(PID.TID 0000.0001) %MON land_SnwH_ave_T              =   0.0000000000000E+00
(PID.TID 0000.0001) %MON land_SnwH_ave_N              =   1.2387955015942E-01
(PID.TID 0000.0001) %MON land_SnwH_max_S              =   9.9997698259419E-01
(PID.TID 0000.0001) %MON land_SnwH_max_T              =   0.0000000000000E+00
(PID.TID 0000.0001) %MON land_SnwH_max_N              =   9.9999705205523E-01
(PID.TID 0000.0001) %MON land_Tsrf_ave_G              =  -8.5645532463613E+00
(PID.TID 0000.0001) %MON land_Tsrf_ave_S              =  -6.8460821712315E+00
(PID.TID 0000.0001) %MON land_Tsrf_ave_T              =   9.6661326299840E+00
(PID.TID 0000.0001) %MON land_Tsrf_ave_N              =  -2.1295930665249E+01
(PID.TID 0000.0001) %MON land_Tsrf_min_S              =  -3.1854360611950E+01
(PID.TID 0000.0001) %MON land_Tsrf_min_T              =  -2.9644752891856E+00
(PID.TID 0000.0001) %MON land_Tsrf_min_N              =  -5.0482291632449E+01
(PID.TID 0000.0001) %MON land_Tsrf_max_S              =   1.9819864353307E+01
(PID.TID 0000.0001) %MON land_Tsrf_max_T              =   1.9644399064418E+01
(PID.TID 0000.0001) %MON land_Tsrf_max_N              =   7.5242987733087E+00
(PID.TID 0000.0001) %MON land_Tgr1_ave_G              =  -7.5008218753376E+00
(PID.TID 0000.0001) %MON land_Tgr1_ave_S              =  -7.3128353005148E+00
(PID.TID 0000.0001) %MON land_Tgr1_ave_T              =   9.6661326299840E+00
(PID.TID 0000.0001) %MON land_Tgr1_ave_N              =  -1.9025390921949E+01
(PID.TID 0000.0001) %MON land_Tgr1_min_S              =  -3.9339789146359E+01
(PID.TID 0000.0001) %MON land_Tgr1_min_T              =  -2.9644752891856E+00
(PID.TID 0000.0001) %MON land_Tgr1_min_N              =  -5.4495689793808E+01
(PID.TID 0000.0001) %MON land_Tgr1_max_S              =   1.9819864353307E+01
(PID.TID 0000.0001) %MON land_Tgr1_max_T              =   1.9644399064418E+01
(PID.TID 0000.0001) %MON land_Tgr1_max_N              =   7.5242987733087E+00
(PID.TID 0000.0001) %MON land_Tgr2_ave_G              =   4.2017882014333E+00
(PID.TID 0000.0001) %MON land_Tgr2_ave_S              =  -1.8724534003546E+01
(PID.TID 0000.0001) %MON land_Tgr2_ave_T              =   2.2007279617374E+01
(PID.TID 0000.0001) %MON land_Tgr2_ave_N              =  -2.5103608457553E-01
(PID.TID 0000.0001) %MON land_Tgr2_min_S              =  -6.4746771695341E+01
(PID.TID 0000.0001) %MON land_Tgr2_min_T              =  -9.7028362280579E+00
(PID.TID 0000.0001) %MON land_Tgr2_min_N              =  -4.0202149196251E+01
(PID.TID 0000.0001) %MON land_Tgr2_max_S              =   2.3359228287834E+01
(PID.TID 0000.0001) %MON land_Tgr2_max_T              =   3.1346895836465E+01
(PID.TID 0000.0001) %MON land_Tgr2_max_N              =   2.9815571978479E+01
(PID.TID 0000.0001) %MON land_TotEnerg_G              =  -6.3634433049334E+21
(PID.TID 0000.0001) %MON land_TotEnerg_S              =  -5.0024867629123E+21
(PID.TID 0000.0001) %MON land_TotEnerg_T              =   7.2719022097130E+21
(PID.TID 0000.0001) %MON land_TotEnerg_N              =  -8.6328587517342E+21
(PID.TID 0000.0001) %MON land_grdW_ave_G              =   4.8667862218772E-01
(PID.TID 0000.0001) %MON land_grdW_ave_S              =   3.0844292776857E-01
(PID.TID 0000.0001) %MON land_grdW_ave_T              =   5.6398974461872E-01
(PID.TID 0000.0001) %MON land_grdW_ave_N              =   4.9287110157188E-01
(PID.TID 0000.0001) %MON land_grdW_min_S              =   2.8462301407596E-02
(PID.TID 0000.0001) %MON land_grdW_min_T              =   0.0000000000000E+00
(PID.TID 0000.0001) %MON land_grdW_min_N              =   0.0000000000000E+00
(PID.TID 0000.0001) // =======================================================
(PID.TID 0000.0001) // End MONITOR Land statistics
(PID.TID 0000.0001) // =======================================================
(PID.TID 0000.0001) // =======================================================
(PID.TID 0000.0001) // Begin MONITOR Therm.SeaIce statistics
(PID.TID 0000.0001) // =======================================================
(PID.TID 0000.0001) %MON thSI_time_sec                =   1.6200000000000E+04
(PID.TID 0000.0001) %MON thSI_Ice_Area_G              =   2.4670285214803E+11
(PID.TID 0000.0001) %MON thSI_Ice_Area_S              =   0.0000000000000E+00
(PID.TID 0000.0001) %MON thSI_Ice_Area_N              =   2.4670285214803E+11
(PID.TID 0000.0001) %MON thSI_IceH_ave_G              =   1.0913927997122E-01
(PID.TID 0000.0001) %MON thSI_IceH_ave_S              =   0.0000000000000E+00
(PID.TID 0000.0001) %MON thSI_IceH_ave_N              =   1.0913927997122E-01
(PID.TID 0000.0001) %MON thSI_IceH_max_S              =   0.0000000000000E+00
(PID.TID 0000.0001) %MON thSI_IceH_max_N              =   1.4786017012065E-01
(PID.TID 0000.0001) %MON thSI_SnwH_ave_G              =   0.0000000000000E+00
(PID.TID 0000.0001) %MON thSI_SnwH_ave_S              =   0.0000000000000E+00
(PID.TID 0000.0001) %MON thSI_SnwH_ave_N              =   0.0000000000000E+00
(PID.TID 0000.0001) %MON thSI_SnwH_max_S              =   0.0000000000000E+00
(PID.TID 0000.0001) %MON thSI_SnwH_max_N              =   0.0000000000000E+00
(PID.TID 0000.0001) %MON thSI_Tsrf_ave_G              =  -7.9685173460487E+00
(PID.TID 0000.0001) %MON thSI_Tsrf_ave_S              =   0.0000000000000E+00
(PID.TID 0000.0001) %MON thSI_Tsrf_ave_N              =  -7.9685173460487E+00
(PID.TID 0000.0001) %MON thSI_Tsrf_min_S              =   0.0000000000000E+00
(PID.TID 0000.0001) %MON thSI_Tsrf_min_N              =  -9.6530270464792E+00
(PID.TID 0000.0001) %MON thSI_Tsrf_max_S              =   0.0000000000000E+00
(PID.TID 0000.0001) %MON thSI_Tsrf_max_N              =  -3.2683218915969E+00
(PID.TID 0000.0001) %MON thSI_Tic1_ave_G              =  -6.9836938069466E+00
(PID.TID 0000.0001) %MON thSI_Tic1_ave_S              =   0.0000000000000E+00
(PID.TID 0000.0001) %MON thSI_Tic1_ave_N              =  -6.9836938069466E+00
(PID.TID 0000.0001) %MON thSI_Tic1_min_S              =   0.0000000000000E+00
(PID.TID 0000.0001) %MON thSI_Tic1_min_N              =  -7.4067319058687E+00
(PID.TID 0000.0001) %MON thSI_Tic1_max_S              =   0.0000000000000E+00
(PID.TID 0000.0001) %MON thSI_Tic1_max_N              =  -2.8551133966329E+00
(PID.TID 0000.0001) %MON thSI_Tic2_ave_G              =  -3.3738229374817E+00
(PID.TID 0000.0001) %MON thSI_Tic2_ave_S              =   0.0000000000000E+00
(PID.TID 0000.0001) %MON thSI_Tic2_ave_N              =  -3.3738229374817E+00
(PID.TID 0000.0001) %MON thSI_Tic2_min_S              =   0.0000000000000E+00
(PID.TID 0000.0001) %MON thSI_Tic2_min_N              =  -3.5196928011065E+00
(PID.TID 0000.0001) %MON thSI_Tic2_max_S              =   0.0000000000000E+00
(PID.TID 0000.0001) %MON thSI_Tic2_max_N              =  -2.0274082247841E+00
(PID.TID 0000.0001) %MON thSI_TotEnerg_G              =  -8.3264280223806E+18
(PID.TID 0000.0001) // =======================================================
(PID.TID 0000.0001) // End MONITOR Therm.SeaIce statistics
(PID.TID 0000.0001) // =======================================================
 cg2d: Sum(rhs),rhsMax =  -2.79396772384644E-09  1.66083451452890E+04
(PID.TID 0000.0001)      cg2d_init_res =   9.16493893635035E+03
(PID.TID 0000.0001)      cg2d_iters(min,last) =      -1      16
(PID.TID 0000.0001)      cg2d_last_res =   6.17180420559972E-11
(PID.TID 0000.0001) // =======================================================
(PID.TID 0000.0001) // Begin MONITOR dynamic field statistics
(PID.TID 0000.0001) // =======================================================
(PID.TID 0000.0001) %MON time_tsnumber                =                    37
(PID.TID 0000.0001) %MON time_secondsf                =   1.6650000000000E+04
(PID.TID 0000.0001) %MON dynstat_eta_max              =   3.0473916970439E+03
(PID.TID 0000.0001) %MON dynstat_eta_min              =  -8.9069039481007E+02
(PID.TID 0000.0001) %MON dynstat_eta_mean             =   2.5705212449625E-14
(PID.TID 0000.0001) %MON dynstat_eta_sd               =   4.1617552719181E+02
(PID.TID 0000.0001) %MON dynstat_eta_del2             =   4.3999984537816E+00
(PID.TID 0000.0001) %MON dynstat_uvel_max             =   5.6273844196853E+00
(PID.TID 0000.0001) %MON dynstat_uvel_min             =  -5.5256732665566E+00
(PID.TID 0000.0001) %MON dynstat_uvel_mean            =   9.1666613294328E-02
(PID.TID 0000.0001) %MON dynstat_uvel_sd              =   7.4204965710471E-01
(PID.TID 0000.0001) %MON dynstat_uvel_del2            =   1.7636704307200E-03
(PID.TID 0000.0001) %MON dynstat_vvel_max             =   4.6062961242977E+00
(PID.TID 0000.0001) %MON dynstat_vvel_min             =  -5.8007643581316E+00
(PID.TID 0000.0001) %MON dynstat_vvel_mean            =   2.2442028259506E-02
(PID.TID 0000.0001) %MON dynstat_vvel_sd              =   7.7544782388953E-01
(PID.TID 0000.0001) %MON dynstat_vvel_del2            =   1.7452948551270E-03
(PID.TID 0000.0001) %MON dynstat_wvel_max             =   1.6209281318894E-01
(PID.TID 0000.0001) %MON dynstat_wvel_min             =  -1.4551279859477E-01
(PID.TID 0000.0001) %MON dynstat_wvel_mean            =   2.1595455196662E-04
(PID.TID 0000.0001) %MON dynstat_wvel_sd              =   1.4117887050192E-02
(PID.TID 0000.0001) %MON dynstat_wvel_del2            =   1.3773093048533E-04
(PID.TID 0000.0001) %MON dynstat_theta_max            =   4.3911530827646E+02
(PID.TID 0000.0001) %MON dynstat_theta_min            =   2.8108128166042E+02
(PID.TID 0000.0001) %MON dynstat_theta_mean           =   3.3165901098437E+02
(PID.TID 0000.0001) %MON dynstat_theta_sd             =   4.7477723755435E+01
(PID.TID 0000.0001) %MON dynstat_theta_del2           =   3.0211767127675E-03
(PID.TID 0000.0001) %MON dynstat_salt_max             =   4.9575008731095E+00
(PID.TID 0000.0001) %MON dynstat_salt_min             =  -3.8743496616359E-02
(PID.TID 0000.0001) %MON dynstat_salt_mean            =   1.3015222672621E-01
(PID.TID 0000.0001) %MON dynstat_salt_sd              =   4.9451212307825E-01
(PID.TID 0000.0001) %MON dynstat_salt_del2            =   1.4201574833990E-03
(PID.TID 0000.0001) %MON trAdv_CFL_u_max              =   7.9433390773988E-03
(PID.TID 0000.0001) %MON trAdv_CFL_v_max              =   8.4849909025019E-03
(PID.TID 0000.0001) %MON trAdv_CFL_w_max              =   9.6555821079949E-03
(PID.TID 0000.0001) %MON advcfl_uvel_max              =   7.9913400516704E-03
(PID.TID 0000.0001) %MON advcfl_vvel_max              =   8.3212137629791E-03
(PID.TID 0000.0001) %MON advcfl_wvel_max              =   4.1681009105728E-03
(PID.TID 0000.0001) %MON advcfl_W_hf_max              =   1.0260670191742E-02
(PID.TID 0000.0001) %MON am_eta_mean                  =  -1.7472167500288E+10
(PID.TID 0000.0001) %MON am_uZo_mean                  =   1.7222101409471E+10
(PID.TID 0000.0001) %MON am_tot_mean                  =  -2.5006609081676E+08
(PID.TID 0000.0001) %MON pe_b_mean                    =  -9.1894316552092E-01
(PID.TID 0000.0001) %MON ke_max                       =   2.2444757583034E+01
(PID.TID 0000.0001) %MON ke_mean                      =   5.7695476418589E-01
(PID.TID 0000.0001) %MON ke_vol                       =   4.9523908919847E+19
(PID.TID 0000.0001) %MON vort_r_min                   =  -2.6109141632269E-05
(PID.TID 0000.0001) %MON vort_r_max                   =   1.6716746623091E-05
(PID.TID 0000.0001) %MON vort_a_mean                  =   6.7242814765331E-08
(PID.TID 0000.0001) %MON vort_a_sd                    =   8.4019097735004E-05
(PID.TID 0000.0001) %MON vort_p_mean                  =   6.8939479952815E-08
(PID.TID 0000.0001) %MON vort_p_sd                    =   9.1904604823587E-05
(PID.TID 0000.0001) %MON surfExpan_theta_mean         =  -2.0823818235568E-02
(PID.TID 0000.0001) %MON surfExpan_salt_mean          =  -1.7335374407627E-03
(PID.TID 0000.0001) %MON surfExpan_Heat_mean          =   1.5508948914621E+00
(PID.TID 0000.0001) %MON En_Budget_T2PE_mean          =  -3.1084464805632E+00
(PID.TID 0000.0001) // =======================================================
(PID.TID 0000.0001) // End MONITOR dynamic field statistics
(PID.TID 0000.0001) // =======================================================
(PID.TID 0000.0001) // =======================================================
(PID.TID 0000.0001) // Begin MONITOR Land statistics
(PID.TID 0000.0001) // =======================================================
(PID.TID 0000.0001) %MON land_time_sec                =   1.6650000000000E+04
(PID.TID 0000.0001) %MON land_SnwH_ave_G              =   1.5321194863066E-01
(PID.TID 0000.0001) %MON land_SnwH_ave_S              =   5.5902846102994E-01
(PID.TID 0000.0001) %MON land_SnwH_ave_T              =   0.0000000000000E+00
(PID.TID 0000.0001) %MON land_SnwH_ave_N              =   1.2387797809654E-01
(PID.TID 0000.0001) %MON land_SnwH_max_S              =   9.9997631292701E-01
(PID.TID 0000.0001) %MON land_SnwH_max_T              =   0.0000000000000E+00
(PID.TID 0000.0001) %MON land_SnwH_max_N              =   9.9999697138537E-01
(PID.TID 0000.0001) %MON land_Tsrf_ave_G              =  -8.5779201288811E+00
(PID.TID 0000.0001) %MON land_Tsrf_ave_S              =  -6.8345588005551E+00
(PID.TID 0000.0001) %MON land_Tsrf_ave_T              =   9.6332344940462E+00
(PID.TID 0000.0001) %MON land_Tsrf_ave_N              =  -2.1304329397619E+01
(PID.TID 0000.0001) %MON land_Tsrf_min_S              =  -3.1818832673897E+01
(PID.TID 0000.0001) %MON land_Tsrf_min_T              =  -3.0701674306096E+00
(PID.TID 0000.0001) %MON land_Tsrf_min_N              =  -5.0495202051472E+01
(PID.TID 0000.0001) %MON land_Tsrf_max_S              =   1.9801000990680E+01
(PID.TID 0000.0001) %MON land_Tsrf_max_T              =   1.9608655254956E+01
(PID.TID 0000.0001) %MON land_Tsrf_max_N              =   7.4709572621139E+00
(PID.TID 0000.0001) %MON land_Tgr1_ave_G              =  -7.5193369897817E+00
(PID.TID 0000.0001) %MON land_Tgr1_ave_S              =  -7.3192082348203E+00
(PID.TID 0000.0001) %MON land_Tgr1_ave_T              =   9.6332344940462E+00
(PID.TID 0000.0001) %MON land_Tgr1_ave_N              =  -1.9038240326891E+01
(PID.TID 0000.0001) %MON land_Tgr1_min_S              =  -3.9348667668421E+01
(PID.TID 0000.0001) %MON land_Tgr1_min_T              =  -3.0701674306096E+00
(PID.TID 0000.0001) %MON land_Tgr1_min_N              =  -5.4481630914526E+01
(PID.TID 0000.0001) %MON land_Tgr1_max_S              =   1.9801000990680E+01
(PID.TID 0000.0001) %MON land_Tgr1_max_T              =   1.9608655254956E+01
(PID.TID 0000.0001) %MON land_Tgr1_max_N              =   7.4709572621139E+00
(PID.TID 0000.0001) %MON land_Tgr2_ave_G              =   4.2016090619639E+00
(PID.TID 0000.0001) %MON land_Tgr2_ave_S              =  -1.8724342687574E+01
(PID.TID 0000.0001) %MON land_Tgr2_ave_T              =   2.2007081271366E+01
(PID.TID 0000.0001) %MON land_Tgr2_ave_N              =  -2.5132257197167E-01
(PID.TID 0000.0001) %MON land_Tgr2_min_S              =  -6.4746343791319E+01
(PID.TID 0000.0001) %MON land_Tgr2_min_T              =  -9.7027458021056E+00
(PID.TID 0000.0001) %MON land_Tgr2_min_N              =  -4.0202381588568E+01
(PID.TID 0000.0001) %MON land_Tgr2_max_S              =   2.3359150379501E+01
(PID.TID 0000.0001) %MON land_Tgr2_max_T              =   3.1346442226349E+01
(PID.TID 0000.0001) %MON land_Tgr2_max_N              =   2.9814998325729E+01
(PID.TID 0000.0001) %MON land_TotEnerg_G              =  -6.3642645948514E+21
(PID.TID 0000.0001) %MON land_TotEnerg_S              =  -5.0024861557491E+21
(PID.TID 0000.0001) %MON land_TotEnerg_T              =   7.2715706488663E+21
(PID.TID 0000.0001) %MON land_TotEnerg_N              =  -8.6333490879686E+21
(PID.TID 0000.0001) %MON land_grdW_ave_G              =   4.8667163392343E-01
(PID.TID 0000.0001) %MON land_grdW_ave_S              =   3.0843569141168E-01
(PID.TID 0000.0001) %MON land_grdW_ave_T              =   5.6397284576935E-01
(PID.TID 0000.0001) %MON land_grdW_ave_N              =   4.9287081178458E-01
(PID.TID 0000.0001) %MON land_grdW_min_S              =   2.8546266530332E-02
(PID.TID 0000.0001) %MON land_grdW_min_T              =   0.0000000000000E+00
(PID.TID 0000.0001) %MON land_grdW_min_N              =   0.0000000000000E+00
(PID.TID 0000.0001) // =======================================================
(PID.TID 0000.0001) // End MONITOR Land statistics
(PID.TID 0000.0001) // =======================================================
(PID.TID 0000.0001) // =======================================================
(PID.TID 0000.0001) // Begin MONITOR Therm.SeaIce statistics
(PID.TID 0000.0001) // =======================================================
(PID.TID 0000.0001) %MON thSI_time_sec                =   1.6650000000000E+04
(PID.TID 0000.0001) %MON thSI_Ice_Area_G              =   2.4945703882063E+11
(PID.TID 0000.0001) %MON thSI_Ice_Area_S              =   0.0000000000000E+00
(PID.TID 0000.0001) %MON thSI_Ice_Area_N              =   2.4945703882063E+11
(PID.TID 0000.0001) %MON thSI_IceH_ave_G              =   1.0850674146019E-01
(PID.TID 0000.0001) %MON thSI_IceH_ave_S              =   0.0000000000000E+00
(PID.TID 0000.0001) %MON thSI_IceH_ave_N              =   1.0850674146019E-01
(PID.TID 0000.0001) %MON thSI_IceH_max_S              =   0.0000000000000E+00
(PID.TID 0000.0001) %MON thSI_IceH_max_N              =   1.4800356869110E-01
(PID.TID 0000.0001) %MON thSI_SnwH_ave_G              =   0.0000000000000E+00
(PID.TID 0000.0001) %MON thSI_SnwH_ave_S              =   0.0000000000000E+00
(PID.TID 0000.0001) %MON thSI_SnwH_ave_N              =   0.0000000000000E+00
(PID.TID 0000.0001) %MON thSI_SnwH_max_S              =   0.0000000000000E+00
(PID.TID 0000.0001) %MON thSI_SnwH_max_N              =   0.0000000000000E+00
(PID.TID 0000.0001) %MON thSI_Tsrf_ave_G              =  -7.9428236742386E+00
(PID.TID 0000.0001) %MON thSI_Tsrf_ave_S              =   0.0000000000000E+00
(PID.TID 0000.0001) %MON thSI_Tsrf_ave_N              =  -7.9428236742386E+00
(PID.TID 0000.0001) %MON thSI_Tsrf_min_S              =   0.0000000000000E+00
(PID.TID 0000.0001) %MON thSI_Tsrf_min_N              =  -9.6792380209547E+00
(PID.TID 0000.0001) %MON thSI_Tsrf_max_S              =   0.0000000000000E+00
(PID.TID 0000.0001) %MON thSI_Tsrf_max_N              =  -3.3098381913997E+00
(PID.TID 0000.0001) %MON thSI_Tic1_ave_G              =  -6.9993282186322E+00
(PID.TID 0000.0001) %MON thSI_Tic1_ave_S              =   0.0000000000000E+00
(PID.TID 0000.0001) %MON thSI_Tic1_ave_N              =  -6.9993282186322E+00
(PID.TID 0000.0001) %MON thSI_Tic1_min_S              =   0.0000000000000E+00
(PID.TID 0000.0001) %MON thSI_Tic1_min_N              =  -7.4422599990619E+00
(PID.TID 0000.0001) %MON thSI_Tic1_max_S              =   0.0000000000000E+00
(PID.TID 0000.0001) %MON thSI_Tic1_max_N              =  -2.8860263639080E+00
(PID.TID 0000.0001) %MON thSI_Tic2_ave_G              =  -3.3836408019640E+00
(PID.TID 0000.0001) %MON thSI_Tic2_ave_S              =   0.0000000000000E+00
(PID.TID 0000.0001) %MON thSI_Tic2_ave_N              =  -3.3836408019640E+00
(PID.TID 0000.0001) %MON thSI_Tic2_min_S              =   0.0000000000000E+00
(PID.TID 0000.0001) %MON thSI_Tic2_min_N              =  -3.5359066992109E+00
(PID.TID 0000.0001) %MON thSI_Tic2_max_S              =   0.0000000000000E+00
(PID.TID 0000.0001) %MON thSI_Tic2_max_N              =  -2.0375700785837E+00
(PID.TID 0000.0001) %MON thSI_TotEnerg_G              =  -8.3712485395699E+18
(PID.TID 0000.0001) // =======================================================
(PID.TID 0000.0001) // End MONITOR Therm.SeaIce statistics
(PID.TID 0000.0001) // =======================================================
 cg2d: Sum(rhs),rhsMax =  -2.32830643653870E-10  1.66069528672159E+04
(PID.TID 0000.0001)      cg2d_init_res =   9.04504427793669E+03
(PID.TID 0000.0001)      cg2d_iters(min,last) =      -1      16
(PID.TID 0000.0001)      cg2d_last_res =   6.19518711858741E-11
(PID.TID 0000.0001) // =======================================================
(PID.TID 0000.0001) // Begin MONITOR dynamic field statistics
(PID.TID 0000.0001) // =======================================================
(PID.TID 0000.0001) %MON time_tsnumber                =                    38
(PID.TID 0000.0001) %MON time_secondsf                =   1.7100000000000E+04
(PID.TID 0000.0001) %MON dynstat_eta_max              =   3.0549375331020E+03
(PID.TID 0000.0001) %MON dynstat_eta_min              =  -9.1917770274029E+02
(PID.TID 0000.0001) %MON dynstat_eta_mean             =  -2.5705212449625E-14
(PID.TID 0000.0001) %MON dynstat_eta_sd               =   4.1545752503516E+02
(PID.TID 0000.0001) %MON dynstat_eta_del2             =   4.4050291510961E+00
(PID.TID 0000.0001) %MON dynstat_uvel_max             =   5.5008918258420E+00
(PID.TID 0000.0001) %MON dynstat_uvel_min             =  -5.5759636770858E+00
(PID.TID 0000.0001) %MON dynstat_uvel_mean            =   9.6198677085377E-02
(PID.TID 0000.0001) %MON dynstat_uvel_sd              =   7.3530200664586E-01
(PID.TID 0000.0001) %MON dynstat_uvel_del2            =   1.8073622724048E-03
(PID.TID 0000.0001) %MON dynstat_vvel_max             =   4.6932262165467E+00
(PID.TID 0000.0001) %MON dynstat_vvel_min             =  -5.8605796127833E+00
(PID.TID 0000.0001) %MON dynstat_vvel_mean            =   2.4895286305358E-02
(PID.TID 0000.0001) %MON dynstat_vvel_sd              =   7.6606751449251E-01
(PID.TID 0000.0001) %MON dynstat_vvel_del2            =   1.7794655406135E-03
(PID.TID 0000.0001) %MON dynstat_wvel_max             =   1.7819475143390E-01
(PID.TID 0000.0001) %MON dynstat_wvel_min             =  -1.3568473421535E-01
(PID.TID 0000.0001) %MON dynstat_wvel_mean            =   1.8006029658566E-04
(PID.TID 0000.0001) %MON dynstat_wvel_sd              =   1.3934063771863E-02
(PID.TID 0000.0001) %MON dynstat_wvel_del2            =   1.3778362323050E-04
(PID.TID 0000.0001) %MON dynstat_theta_max            =   4.3906164544464E+02
(PID.TID 0000.0001) %MON dynstat_theta_min            =   2.8086926426773E+02
(PID.TID 0000.0001) %MON dynstat_theta_mean           =   3.3165668263479E+02
(PID.TID 0000.0001) %MON dynstat_theta_sd             =   4.7479843526763E+01
(PID.TID 0000.0001) %MON dynstat_theta_del2           =   3.0767719727108E-03
(PID.TID 0000.0001) %MON dynstat_salt_max             =   4.9854053706535E+00
(PID.TID 0000.0001) %MON dynstat_salt_min             =  -4.1343271851755E-02
(PID.TID 0000.0001) %MON dynstat_salt_mean            =   1.3339570485533E-01
(PID.TID 0000.0001) %MON dynstat_salt_sd              =   5.0527604392767E-01
(PID.TID 0000.0001) %MON dynstat_salt_del2            =   1.4479628434409E-03
(PID.TID 0000.0001) %MON trAdv_CFL_u_max              =   7.9954765597059E-03
(PID.TID 0000.0001) %MON trAdv_CFL_v_max              =   8.0104329543755E-03
(PID.TID 0000.0001) %MON trAdv_CFL_w_max              =   9.9401347565286E-03
(PID.TID 0000.0001) %MON advcfl_uvel_max              =   7.9529915737520E-03
(PID.TID 0000.0001) %MON advcfl_vvel_max              =   8.4070189240775E-03
(PID.TID 0000.0001) %MON advcfl_wvel_max              =   4.5821507511574E-03
(PID.TID 0000.0001) %MON advcfl_W_hf_max              =   1.0810253877080E-02
(PID.TID 0000.0001) %MON am_eta_mean                  =  -1.7842473392323E+10
(PID.TID 0000.0001) %MON am_uZo_mean                  =   1.7581910639887E+10
(PID.TID 0000.0001) %MON am_tot_mean                  =  -2.6056275243631E+08
(PID.TID 0000.0001) %MON pe_b_mean                    =  -9.1248227866491E-01
(PID.TID 0000.0001) %MON ke_max                       =   2.2831077560609E+01
(PID.TID 0000.0001) %MON ke_mean                      =   5.6529437727989E-01
(PID.TID 0000.0001) %MON ke_vol                       =   4.9523908919847E+19
(PID.TID 0000.0001) %MON vort_r_min                   =  -2.6322115438212E-05
(PID.TID 0000.0001) %MON vort_r_max                   =   1.6875490427272E-05
(PID.TID 0000.0001) %MON vort_a_mean                  =   6.7242814765266E-08
(PID.TID 0000.0001) %MON vort_a_sd                    =   8.4020588357964E-05
(PID.TID 0000.0001) %MON vort_p_mean                  =   6.8939479031468E-08
(PID.TID 0000.0001) %MON vort_p_sd                    =   9.1899525402181E-05
(PID.TID 0000.0001) %MON surfExpan_theta_mean         =  -1.7673336291717E-02
(PID.TID 0000.0001) %MON surfExpan_salt_mean          =  -1.7172600783838E-03
(PID.TID 0000.0001) %MON surfExpan_Heat_mean          =   1.2527865326568E+00
(PID.TID 0000.0001) %MON En_Budget_T2PE_mean          =  -2.5695586411310E+00
(PID.TID 0000.0001) // =======================================================
(PID.TID 0000.0001) // End MONITOR dynamic field statistics
(PID.TID 0000.0001) // =======================================================
(PID.TID 0000.0001) // =======================================================
(PID.TID 0000.0001) // Begin MONITOR Land statistics
(PID.TID 0000.0001) // =======================================================
(PID.TID 0000.0001) %MON land_time_sec                =   1.7100000000000E+04
(PID.TID 0000.0001) %MON land_SnwH_ave_G              =   1.5321101102699E-01
(PID.TID 0000.0001) %MON land_SnwH_ave_S              =   5.5902752197788E-01
(PID.TID 0000.0001) %MON land_SnwH_ave_T              =   0.0000000000000E+00
(PID.TID 0000.0001) %MON land_SnwH_ave_N              =   1.2387641485857E-01
(PID.TID 0000.0001) %MON land_SnwH_max_S              =   9.9997564061556E-01
(PID.TID 0000.0001) %MON land_SnwH_max_T              =   0.0000000000000E+00
(PID.TID 0000.0001) %MON land_SnwH_max_N              =   9.9999689065508E-01
(PID.TID 0000.0001) %MON land_Tsrf_ave_G              =  -8.5899960670767E+00
(PID.TID 0000.0001) %MON land_Tsrf_ave_S              =  -6.8203161975736E+00
(PID.TID 0000.0001) %MON land_Tsrf_ave_T              =   9.6027176707593E+00
(PID.TID 0000.0001) %MON land_Tsrf_ave_N              =  -2.1312628629484E+01
(PID.TID 0000.0001) %MON land_Tsrf_min_S              =  -3.1780633678656E+01
(PID.TID 0000.0001) %MON land_Tsrf_min_T              =  -3.1731028835141E+00
(PID.TID 0000.0001) %MON land_Tsrf_min_N              =  -5.0511479136096E+01
(PID.TID 0000.0001) %MON land_Tsrf_max_S              =   1.9786474447099E+01
(PID.TID 0000.0001) %MON land_Tsrf_max_T              =   1.9577477076016E+01
(PID.TID 0000.0001) %MON land_Tsrf_max_N              =   7.4302373810683E+00
(PID.TID 0000.0001) %MON land_Tgr1_ave_G              =  -7.5367397081390E+00
(PID.TID 0000.0001) %MON land_Tgr1_ave_S              =  -7.3246451086939E+00
(PID.TID 0000.0001) %MON land_Tgr1_ave_T              =   9.6027176707593E+00
(PID.TID 0000.0001) %MON land_Tgr1_ave_N              =  -1.9050767478697E+01
(PID.TID 0000.0001) %MON land_Tgr1_min_S              =  -3.9357487806199E+01
(PID.TID 0000.0001) %MON land_Tgr1_min_T              =  -3.1731028835141E+00
(PID.TID 0000.0001) %MON land_Tgr1_min_N              =  -5.4467587114816E+01
(PID.TID 0000.0001) %MON land_Tgr1_max_S              =   1.9786474447099E+01
(PID.TID 0000.0001) %MON land_Tgr1_max_T              =   1.9577477076016E+01
(PID.TID 0000.0001) %MON land_Tgr1_max_N              =   7.4302373810683E+00
(PID.TID 0000.0001) %MON land_Tgr2_ave_G              =   4.2014297063258E+00
(PID.TID 0000.0001) %MON land_Tgr2_ave_S              =  -1.8724151461541E+01
(PID.TID 0000.0001) %MON land_Tgr2_ave_T              =   2.2006882564251E+01
(PID.TID 0000.0001) %MON land_Tgr2_ave_N              =  -2.5160921969800E-01
(PID.TID 0000.0001) %MON land_Tgr2_min_S              =  -6.4745916061047E+01
(PID.TID 0000.0001) %MON land_Tgr2_min_T              =  -9.7026544740121E+00
(PID.TID 0000.0001) %MON land_Tgr2_min_N              =  -4.0202613749331E+01
(PID.TID 0000.0001) %MON land_Tgr2_max_S              =   2.3359071940758E+01
(PID.TID 0000.0001) %MON land_Tgr2_max_T              =   3.1345987428185E+01
(PID.TID 0000.0001) %MON land_Tgr2_max_N              =   2.9814421678588E+01
(PID.TID 0000.0001) %MON land_TotEnerg_G              =  -6.3650562393531E+21
(PID.TID 0000.0001) %MON land_TotEnerg_S              =  -5.0024823772304E+21
(PID.TID 0000.0001) %MON land_TotEnerg_T              =   7.2712581386770E+21
(PID.TID 0000.0001) %MON land_TotEnerg_N              =  -8.6338320007997E+21
(PID.TID 0000.0001) %MON land_grdW_ave_G              =   4.8666467719420E-01
(PID.TID 0000.0001) %MON land_grdW_ave_S              =   3.0842847939484E-01
(PID.TID 0000.0001) %MON land_grdW_ave_T              =   5.6395603272182E-01
(PID.TID 0000.0001) %MON land_grdW_ave_N              =   4.9287051962857E-01
(PID.TID 0000.0001) %MON land_grdW_min_S              =   2.8629519031665E-02
(PID.TID 0000.0001) %MON land_grdW_min_T              =   0.0000000000000E+00
(PID.TID 0000.0001) %MON land_grdW_min_N              =   0.0000000000000E+00
(PID.TID 0000.0001) // =======================================================
(PID.TID 0000.0001) // End MONITOR Land statistics
(PID.TID 0000.0001) // =======================================================
(PID.TID 0000.0001) // =======================================================
(PID.TID 0000.0001) // Begin MONITOR Therm.SeaIce statistics
(PID.TID 0000.0001) // =======================================================
(PID.TID 0000.0001) %MON thSI_time_sec                =   1.7100000000000E+04
(PID.TID 0000.0001) %MON thSI_Ice_Area_G              =   2.5210407452661E+11
(PID.TID 0000.0001) %MON thSI_Ice_Area_S              =   0.0000000000000E+00
(PID.TID 0000.0001) %MON thSI_Ice_Area_N              =   2.5210407452661E+11
(PID.TID 0000.0001) %MON thSI_IceH_ave_G              =   1.0793662301114E-01
(PID.TID 0000.0001) %MON thSI_IceH_ave_S              =   0.0000000000000E+00
(PID.TID 0000.0001) %MON thSI_IceH_ave_N              =   1.0793662301114E-01
(PID.TID 0000.0001) %MON thSI_IceH_max_S              =   0.0000000000000E+00
(PID.TID 0000.0001) %MON thSI_IceH_max_N              =   1.4814824854356E-01
(PID.TID 0000.0001) %MON thSI_SnwH_ave_G              =   0.0000000000000E+00
(PID.TID 0000.0001) %MON thSI_SnwH_ave_S              =   0.0000000000000E+00
(PID.TID 0000.0001) %MON thSI_SnwH_ave_N              =   0.0000000000000E+00
(PID.TID 0000.0001) %MON thSI_SnwH_max_S              =   0.0000000000000E+00
(PID.TID 0000.0001) %MON thSI_SnwH_max_N              =   0.0000000000000E+00
(PID.TID 0000.0001) %MON thSI_Tsrf_ave_G              =  -7.9180466797745E+00
(PID.TID 0000.0001) %MON thSI_Tsrf_ave_S              =   0.0000000000000E+00
(PID.TID 0000.0001) %MON thSI_Tsrf_ave_N              =  -7.9180466797745E+00
(PID.TID 0000.0001) %MON thSI_Tsrf_min_S              =   0.0000000000000E+00
(PID.TID 0000.0001) %MON thSI_Tsrf_min_N              =  -9.7022562725926E+00
(PID.TID 0000.0001) %MON thSI_Tsrf_max_S              =   0.0000000000000E+00
(PID.TID 0000.0001) %MON thSI_Tsrf_max_N              =  -3.3506246218139E+00
(PID.TID 0000.0001) %MON thSI_Tic1_ave_G              =  -7.0119229286105E+00
(PID.TID 0000.0001) %MON thSI_Tic1_ave_S              =   0.0000000000000E+00
(PID.TID 0000.0001) %MON thSI_Tic1_ave_N              =  -7.0119229286105E+00
(PID.TID 0000.0001) %MON thSI_Tic1_min_S              =   0.0000000000000E+00
(PID.TID 0000.0001) %MON thSI_Tic1_min_N              =  -7.4743167611825E+00
(PID.TID 0000.0001) %MON thSI_Tic1_max_S              =   0.0000000000000E+00
(PID.TID 0000.0001) %MON thSI_Tic1_max_N              =  -2.9163933078432E+00
(PID.TID 0000.0001) %MON thSI_Tic2_ave_G              =  -3.3921198877937E+00
(PID.TID 0000.0001) %MON thSI_Tic2_ave_S              =   0.0000000000000E+00
(PID.TID 0000.0001) %MON thSI_Tic2_ave_N              =  -3.3921198877937E+00
(PID.TID 0000.0001) %MON thSI_Tic2_min_S              =   0.0000000000000E+00
(PID.TID 0000.0001) %MON thSI_Tic2_min_N              =  -3.5506397211923E+00
(PID.TID 0000.0001) %MON thSI_Tic2_max_S              =   0.0000000000000E+00
(PID.TID 0000.0001) %MON thSI_Tic2_max_N              =  -2.0475491282781E+00
(PID.TID 0000.0001) %MON thSI_TotEnerg_G              =  -8.4161667871181E+18
(PID.TID 0000.0001) // =======================================================
(PID.TID 0000.0001) // End MONITOR Therm.SeaIce statistics
(PID.TID 0000.0001) // =======================================================
 cg2d: Sum(rhs),rhsMax =  -3.02679836750031E-09  1.66288504727215E+04
(PID.TID 0000.0001)      cg2d_init_res =   8.92696572984293E+03
(PID.TID 0000.0001)      cg2d_iters(min,last) =      -1      16
(PID.TID 0000.0001)      cg2d_last_res =   6.17734769405272E-11
(PID.TID 0000.0001) // =======================================================
(PID.TID 0000.0001) // Begin MONITOR dynamic field statistics
(PID.TID 0000.0001) // =======================================================
(PID.TID 0000.0001) %MON time_tsnumber                =                    39
(PID.TID 0000.0001) %MON time_secondsf                =   1.7550000000000E+04
(PID.TID 0000.0001) %MON dynstat_eta_max              =   3.0606568379163E+03
(PID.TID 0000.0001) %MON dynstat_eta_min              =  -9.3706826409611E+02
(PID.TID 0000.0001) %MON dynstat_eta_mean             =  -5.7836728011656E-14
(PID.TID 0000.0001) %MON dynstat_eta_sd               =   4.1549592195649E+02
(PID.TID 0000.0001) %MON dynstat_eta_del2             =   4.4081466145673E+00
(PID.TID 0000.0001) %MON dynstat_uvel_max             =   5.3786717709804E+00
(PID.TID 0000.0001) %MON dynstat_uvel_min             =  -5.6285365366850E+00
(PID.TID 0000.0001) %MON dynstat_uvel_mean            =   1.0004045508515E-01
(PID.TID 0000.0001) %MON dynstat_uvel_sd              =   7.2836858597687E-01
(PID.TID 0000.0001) %MON dynstat_uvel_del2            =   1.8527573261960E-03
(PID.TID 0000.0001) %MON dynstat_vvel_max             =   4.7616001352883E+00
(PID.TID 0000.0001) %MON dynstat_vvel_min             =  -5.8858371958717E+00
(PID.TID 0000.0001) %MON dynstat_vvel_mean            =   2.7864135873485E-02
(PID.TID 0000.0001) %MON dynstat_vvel_sd              =   7.5681716699029E-01
(PID.TID 0000.0001) %MON dynstat_vvel_del2            =   1.8148699397076E-03
(PID.TID 0000.0001) %MON dynstat_wvel_max             =   1.8859826721781E-01
(PID.TID 0000.0001) %MON dynstat_wvel_min             =  -1.2979182264983E-01
(PID.TID 0000.0001) %MON dynstat_wvel_mean            =   1.4681092411469E-04
(PID.TID 0000.0001) %MON dynstat_wvel_sd              =   1.3782376234401E-02
(PID.TID 0000.0001) %MON dynstat_wvel_del2            =   1.3809069003913E-04
(PID.TID 0000.0001) %MON dynstat_theta_max            =   4.3899899906490E+02
(PID.TID 0000.0001) %MON dynstat_theta_min            =   2.8065761082630E+02
(PID.TID 0000.0001) %MON dynstat_theta_mean           =   3.3165434026073E+02
(PID.TID 0000.0001) %MON dynstat_theta_sd             =   4.7481972792426E+01
(PID.TID 0000.0001) %MON dynstat_theta_del2           =   3.1310971243743E-03
(PID.TID 0000.0001) %MON dynstat_salt_max             =   5.0136451295089E+00
(PID.TID 0000.0001) %MON dynstat_salt_min             =  -4.3984867321663E-02
(PID.TID 0000.0001) %MON dynstat_salt_mean            =   1.3662976624127E-01
(PID.TID 0000.0001) %MON dynstat_salt_sd              =   5.1595591944383E-01
(PID.TID 0000.0001) %MON dynstat_salt_del2            =   1.4757453826088E-03
(PID.TID 0000.0001) %MON trAdv_CFL_u_max              =   8.0709649259342E-03
(PID.TID 0000.0001) %MON trAdv_CFL_v_max              =   8.2956856324296E-03
(PID.TID 0000.0001) %MON trAdv_CFL_w_max              =   1.0241342116519E-02
(PID.TID 0000.0001) %MON advcfl_uvel_max              =   8.0279761923065E-03
(PID.TID 0000.0001) %MON advcfl_vvel_max              =   8.4432510023071E-03
(PID.TID 0000.0001) %MON advcfl_wvel_max              =   4.8496697284579E-03
(PID.TID 0000.0001) %MON advcfl_W_hf_max              =   1.1352226571535E-02
(PID.TID 0000.0001) %MON am_eta_mean                  =  -1.8180583686633E+10
(PID.TID 0000.0001) %MON am_uZo_mean                  =   1.7909079435710E+10
(PID.TID 0000.0001) %MON am_tot_mean                  =  -2.7150425092262E+08
(PID.TID 0000.0001) %MON pe_b_mean                    =  -9.0587479694082E-01
(PID.TID 0000.0001) %MON ke_max                       =   2.3109933232889E+01
(PID.TID 0000.0001) %MON ke_mean                      =   5.5370201387064E-01
(PID.TID 0000.0001) %MON ke_vol                       =   4.9523908919847E+19
(PID.TID 0000.0001) %MON vort_r_min                   =  -2.6496864240304E-05
(PID.TID 0000.0001) %MON vort_r_max                   =   1.7453777198197E-05
(PID.TID 0000.0001) %MON vort_a_mean                  =   6.7242814765331E-08
(PID.TID 0000.0001) %MON vort_a_sd                    =   8.4021946367424E-05
(PID.TID 0000.0001) %MON vort_p_mean                  =   6.8939477604942E-08
(PID.TID 0000.0001) %MON vort_p_sd                    =   9.1894692803363E-05
(PID.TID 0000.0001) %MON surfExpan_theta_mean         =  -1.4770136031915E-02
(PID.TID 0000.0001) %MON surfExpan_salt_mean          =  -1.6844979987235E-03
(PID.TID 0000.0001) %MON surfExpan_Heat_mean          =   9.8190325106618E-01
(PID.TID 0000.0001) %MON En_Budget_T2PE_mean          =  -2.0757266763239E+00
(PID.TID 0000.0001) // =======================================================
(PID.TID 0000.0001) // End MONITOR dynamic field statistics
(PID.TID 0000.0001) // =======================================================
(PID.TID 0000.0001) // =======================================================
(PID.TID 0000.0001) // Begin MONITOR Land statistics
(PID.TID 0000.0001) // =======================================================
(PID.TID 0000.0001) %MON land_time_sec                =   1.7550000000000E+04
(PID.TID 0000.0001) %MON land_SnwH_ave_G              =   1.5321007618349E-01
(PID.TID 0000.0001) %MON land_SnwH_ave_S              =   5.5902658206749E-01
(PID.TID 0000.0001) %MON land_SnwH_ave_T              =   0.0000000000000E+00
(PID.TID 0000.0001) %MON land_SnwH_ave_N              =   1.2387485739774E-01
(PID.TID 0000.0001) %MON land_SnwH_max_S              =   9.9997496522421E-01
(PID.TID 0000.0001) %MON land_SnwH_max_T              =   0.0000000000000E+00
(PID.TID 0000.0001) %MON land_SnwH_max_N              =   9.9999680993020E-01
(PID.TID 0000.0001) %MON land_Tsrf_ave_G              =  -8.6006885666961E+00
(PID.TID 0000.0001) %MON land_Tsrf_ave_S              =  -6.8035433885371E+00
(PID.TID 0000.0001) %MON land_Tsrf_ave_T              =   9.5746393318687E+00
(PID.TID 0000.0001) %MON land_Tsrf_ave_N              =  -2.1320620955726E+01
(PID.TID 0000.0001) %MON land_Tsrf_min_S              =  -3.1739291877031E+01
(PID.TID 0000.0001) %MON land_Tsrf_min_T              =  -3.2733496802812E+00
(PID.TID 0000.0001) %MON land_Tsrf_min_N              =  -5.0531484010485E+01
(PID.TID 0000.0001) %MON land_Tsrf_max_S              =   1.9776100356393E+01
(PID.TID 0000.0001) %MON land_Tsrf_max_T              =   1.9550273135526E+01
(PID.TID 0000.0001) %MON land_Tsrf_max_N              =   7.3958644903940E+00
(PID.TID 0000.0001) %MON land_Tgr1_ave_G              =  -7.5528946396977E+00
(PID.TID 0000.0001) %MON land_Tgr1_ave_S              =  -7.3291476533815E+00
(PID.TID 0000.0001) %MON land_Tgr1_ave_T              =   9.5746393318687E+00
(PID.TID 0000.0001) %MON land_Tgr1_ave_N              =  -1.9062740272803E+01
(PID.TID 0000.0001) %MON land_Tgr1_min_S              =  -3.9366250327862E+01
(PID.TID 0000.0001) %MON land_Tgr1_min_T              =  -3.2733496802812E+00
(PID.TID 0000.0001) %MON land_Tgr1_min_N              =  -5.4453564335563E+01
(PID.TID 0000.0001) %MON land_Tgr1_max_S              =   1.9776100356393E+01
(PID.TID 0000.0001) %MON land_Tgr1_max_T              =   1.9550273135526E+01
(PID.TID 0000.0001) %MON land_Tgr1_max_N              =   7.3958644903940E+00
(PID.TID 0000.0001) %MON land_Tgr2_ave_G              =   4.2012503368978E+00
(PID.TID 0000.0001) %MON land_Tgr2_ave_S              =  -1.8723960310661E+01
(PID.TID 0000.0001) %MON land_Tgr2_ave_T              =   2.2006683585546E+01
(PID.TID 0000.0001) %MON land_Tgr2_ave_N              =  -2.5189568915862E-01
(PID.TID 0000.0001) %MON land_Tgr2_min_S              =  -6.4745488503573E+01
(PID.TID 0000.0001) %MON land_Tgr2_min_T              =  -9.7025622821054E+00
(PID.TID 0000.0001) %MON land_Tgr2_min_N              =  -4.0202845679936E+01
(PID.TID 0000.0001) %MON land_Tgr2_max_S              =   2.3358993064229E+01
(PID.TID 0000.0001) %MON land_Tgr2_max_T              =   3.1345531537352E+01
(PID.TID 0000.0001) %MON land_Tgr2_max_N              =   2.9813842160157E+01
(PID.TID 0000.0001) %MON land_TotEnerg_G              =  -6.3658201065925E+21
(PID.TID 0000.0001) %MON land_TotEnerg_S              =  -5.0024754521985E+21
(PID.TID 0000.0001) %MON land_TotEnerg_T              =   7.2709630802053E+21
(PID.TID 0000.0001) %MON land_TotEnerg_N              =  -8.6343077345993E+21
(PID.TID 0000.0001) %MON land_grdW_ave_G              =   4.8665774994612E-01
(PID.TID 0000.0001) %MON land_grdW_ave_S              =   3.0842129041846E-01
(PID.TID 0000.0001) %MON land_grdW_ave_T              =   5.6393929862076E-01
(PID.TID 0000.0001) %MON land_grdW_ave_N              =   4.9287022601158E-01
(PID.TID 0000.0001) %MON land_grdW_min_S              =   2.8711961279294E-02
(PID.TID 0000.0001) %MON land_grdW_min_T              =   0.0000000000000E+00
(PID.TID 0000.0001) %MON land_grdW_min_N              =   0.0000000000000E+00
(PID.TID 0000.0001) // =======================================================
(PID.TID 0000.0001) // End MONITOR Land statistics
(PID.TID 0000.0001) // =======================================================
(PID.TID 0000.0001) // =======================================================
(PID.TID 0000.0001) // Begin MONITOR Therm.SeaIce statistics
(PID.TID 0000.0001) // =======================================================
(PID.TID 0000.0001) %MON thSI_time_sec                =   1.7550000000000E+04
(PID.TID 0000.0001) %MON thSI_Ice_Area_G              =   2.5465143323400E+11
(PID.TID 0000.0001) %MON thSI_Ice_Area_S              =   0.0000000000000E+00
(PID.TID 0000.0001) %MON thSI_Ice_Area_N              =   2.5465143323400E+11
(PID.TID 0000.0001) %MON thSI_IceH_ave_G              =   1.0742289732974E-01
(PID.TID 0000.0001) %MON thSI_IceH_ave_S              =   0.0000000000000E+00
(PID.TID 0000.0001) %MON thSI_IceH_ave_N              =   1.0742289732974E-01
(PID.TID 0000.0001) %MON thSI_IceH_max_S              =   0.0000000000000E+00
(PID.TID 0000.0001) %MON thSI_IceH_max_N              =   1.4829408955476E-01
(PID.TID 0000.0001) %MON thSI_SnwH_ave_G              =   0.0000000000000E+00
(PID.TID 0000.0001) %MON thSI_SnwH_ave_S              =   0.0000000000000E+00
(PID.TID 0000.0001) %MON thSI_SnwH_ave_N              =   0.0000000000000E+00
(PID.TID 0000.0001) %MON thSI_SnwH_max_S              =   0.0000000000000E+00
(PID.TID 0000.0001) %MON thSI_SnwH_max_N              =   0.0000000000000E+00
(PID.TID 0000.0001) %MON thSI_Tsrf_ave_G              =  -7.8940501807385E+00
(PID.TID 0000.0001) %MON thSI_Tsrf_ave_S              =   0.0000000000000E+00
(PID.TID 0000.0001) %MON thSI_Tsrf_ave_N              =  -7.8940501807385E+00
(PID.TID 0000.0001) %MON thSI_Tsrf_min_S              =   0.0000000000000E+00
(PID.TID 0000.0001) %MON thSI_Tsrf_min_N              =  -9.7222994835019E+00
(PID.TID 0000.0001) %MON thSI_Tsrf_max_S              =   0.0000000000000E+00
(PID.TID 0000.0001) %MON thSI_Tsrf_max_N              =  -3.3906870683562E+00
(PID.TID 0000.0001) %MON thSI_Tic1_ave_G              =  -7.0217126106612E+00
(PID.TID 0000.0001) %MON thSI_Tic1_ave_S              =   0.0000000000000E+00
(PID.TID 0000.0001) %MON thSI_Tic1_ave_N              =  -7.0217126106612E+00
(PID.TID 0000.0001) %MON thSI_Tic1_min_S              =   0.0000000000000E+00
(PID.TID 0000.0001) %MON thSI_Tic1_min_N              =  -7.5030873359213E+00
(PID.TID 0000.0001) %MON thSI_Tic1_max_S              =   0.0000000000000E+00
(PID.TID 0000.0001) %MON thSI_Tic1_max_N              =  -2.9462165891588E+00
(PID.TID 0000.0001) %MON thSI_Tic2_ave_G              =  -3.3993662708456E+00
(PID.TID 0000.0001) %MON thSI_Tic2_ave_S              =   0.0000000000000E+00
(PID.TID 0000.0001) %MON thSI_Tic2_ave_N              =  -3.3993662708456E+00
(PID.TID 0000.0001) %MON thSI_Tic2_min_S              =   0.0000000000000E+00
(PID.TID 0000.0001) %MON thSI_Tic2_min_N              =  -3.5639919632258E+00
(PID.TID 0000.0001) %MON thSI_Tic2_max_S              =   0.0000000000000E+00
(PID.TID 0000.0001) %MON thSI_Tic2_max_N              =  -2.0573458419507E+00
(PID.TID 0000.0001) %MON thSI_TotEnerg_G              =  -8.4611744716964E+18
(PID.TID 0000.0001) // =======================================================
(PID.TID 0000.0001) // End MONITOR Therm.SeaIce statistics
(PID.TID 0000.0001) // =======================================================
 cg2d: Sum(rhs),rhsMax =   0.00000000000000E+00  1.66718181136167E+04
(PID.TID 0000.0001)      cg2d_init_res =   8.80664870733513E+03
(PID.TID 0000.0001)      cg2d_iters(min,last) =      -1      16
(PID.TID 0000.0001)      cg2d_last_res =   6.13397134004315E-11
(PID.TID 0000.0001) // =======================================================
(PID.TID 0000.0001) // Begin MONITOR dynamic field statistics
(PID.TID 0000.0001) // =======================================================
(PID.TID 0000.0001) %MON time_tsnumber                =                    40
(PID.TID 0000.0001) %MON time_secondsf                =   1.8000000000000E+04
(PID.TID 0000.0001) %MON dynstat_eta_max              =   3.0650286188773E+03
(PID.TID 0000.0001) %MON dynstat_eta_min              =  -9.4586990104837E+02
(PID.TID 0000.0001) %MON dynstat_eta_mean             =   1.0924715291091E-13
(PID.TID 0000.0001) %MON dynstat_eta_sd               =   4.1620103598384E+02
(PID.TID 0000.0001) %MON dynstat_eta_del2             =   4.4095741225121E+00
(PID.TID 0000.0001) %MON dynstat_uvel_max             =   5.2816859097701E+00
(PID.TID 0000.0001) %MON dynstat_uvel_min             =  -5.6803902917549E+00
(PID.TID 0000.0001) %MON dynstat_uvel_mean            =   1.0315561292828E-01
(PID.TID 0000.0001) %MON dynstat_uvel_sd              =   7.2127866381748E-01
(PID.TID 0000.0001) %MON dynstat_uvel_del2            =   1.8997617129258E-03
(PID.TID 0000.0001) %MON dynstat_vvel_max             =   4.8101860208196E+00
(PID.TID 0000.0001) %MON dynstat_vvel_min             =  -5.8761830720230E+00
(PID.TID 0000.0001) %MON dynstat_vvel_mean            =   3.1328983108060E-02
(PID.TID 0000.0001) %MON dynstat_vvel_sd              =   7.4770657266328E-01
(PID.TID 0000.0001) %MON dynstat_vvel_del2            =   1.8514595036758E-03
(PID.TID 0000.0001) %MON dynstat_wvel_max             =   1.9318969926087E-01
(PID.TID 0000.0001) %MON dynstat_wvel_min             =  -1.3478940238885E-01
(PID.TID 0000.0001) %MON dynstat_wvel_mean            =   1.1627126559621E-04
(PID.TID 0000.0001) %MON dynstat_wvel_sd              =   1.3670028152865E-02
(PID.TID 0000.0001) %MON dynstat_wvel_del2            =   1.3860202442669E-04
(PID.TID 0000.0001) %MON dynstat_theta_max            =   4.3894893994052E+02
(PID.TID 0000.0001) %MON dynstat_theta_min            =   2.8044641158576E+02
(PID.TID 0000.0001) %MON dynstat_theta_mean           =   3.3165198389424E+02
(PID.TID 0000.0001) %MON dynstat_theta_sd             =   4.7484111858234E+01
(PID.TID 0000.0001) %MON dynstat_theta_del2           =   3.1843260939336E-03
(PID.TID 0000.0001) %MON dynstat_salt_max             =   5.0418864618863E+00
(PID.TID 0000.0001) %MON dynstat_salt_min             =  -4.6666578784122E-02
(PID.TID 0000.0001) %MON dynstat_salt_mean            =   1.3985446314493E-01
(PID.TID 0000.0001) %MON dynstat_salt_sd              =   5.2655160665766E-01
(PID.TID 0000.0001) %MON dynstat_salt_del2            =   1.5037984164079E-03
(PID.TID 0000.0001) %MON trAdv_CFL_u_max              =   8.3270430276979E-03
(PID.TID 0000.0001) %MON trAdv_CFL_v_max              =   8.5703258051068E-03
(PID.TID 0000.0001) %MON trAdv_CFL_w_max              =   1.0562081758248E-02
(PID.TID 0000.0001) %MON advcfl_uvel_max              =   8.1019351527698E-03
(PID.TID 0000.0001) %MON advcfl_vvel_max              =   8.4294021328686E-03
(PID.TID 0000.0001) %MON advcfl_wvel_max              =   4.9677351238509E-03
(PID.TID 0000.0001) %MON advcfl_W_hf_max              =   1.1885445957087E-02
(PID.TID 0000.0001) %MON am_eta_mean                  =  -1.8485924561601E+10
(PID.TID 0000.0001) %MON am_uZo_mean                  =   1.8202977716683E+10
(PID.TID 0000.0001) %MON am_tot_mean                  =  -2.8294684491848E+08
(PID.TID 0000.0001) %MON pe_b_mean                    =  -8.9920849129294E-01
(PID.TID 0000.0001) %MON ke_max                       =   2.3274520744070E+01
(PID.TID 0000.0001) %MON ke_mean                      =   5.4219836695012E-01
(PID.TID 0000.0001) %MON ke_vol                       =   4.9523908919847E+19
(PID.TID 0000.0001) %MON vort_r_min                   =  -2.6628274863779E-05
(PID.TID 0000.0001) %MON vort_r_max                   =   1.7969658798229E-05
(PID.TID 0000.0001) %MON vort_a_mean                  =   6.7242814765328E-08
(PID.TID 0000.0001) %MON vort_a_sd                    =   8.4023167436007E-05
(PID.TID 0000.0001) %MON vort_p_mean                  =   6.8939475668466E-08
(PID.TID 0000.0001) %MON vort_p_sd                    =   9.1890048398907E-05
(PID.TID 0000.0001) %MON surfExpan_theta_mean         =  -1.2116273946198E-02
(PID.TID 0000.0001) %MON surfExpan_salt_mean          =  -1.6346560423445E-03
(PID.TID 0000.0001) %MON surfExpan_Heat_mean          =   7.3806347666164E-01
(PID.TID 0000.0001) %MON En_Budget_T2PE_mean          =  -1.6270485961839E+00
(PID.TID 0000.0001) // =======================================================
(PID.TID 0000.0001) // End MONITOR dynamic field statistics
(PID.TID 0000.0001) // =======================================================
(PID.TID 0000.0001) // =======================================================
(PID.TID 0000.0001) // Begin MONITOR Land statistics
(PID.TID 0000.0001) // =======================================================
(PID.TID 0000.0001) %MON land_time_sec                =   1.8000000000000E+04
(PID.TID 0000.0001) %MON land_SnwH_ave_G              =   1.5320914209205E-01
(PID.TID 0000.0001) %MON land_SnwH_ave_S              =   5.5902564081575E-01
(PID.TID 0000.0001) %MON land_SnwH_ave_T              =   0.0000000000000E+00
(PID.TID 0000.0001) %MON land_SnwH_ave_N              =   1.2387330187026E-01
(PID.TID 0000.0001) %MON land_SnwH_max_S              =   9.9997428622562E-01
(PID.TID 0000.0001) %MON land_SnwH_max_T              =   0.0000000000000E+00
(PID.TID 0000.0001) %MON land_SnwH_max_N              =   9.9999672924094E-01
(PID.TID 0000.0001) %MON land_Tsrf_ave_G              =  -8.6103528042296E+00
(PID.TID 0000.0001) %MON land_Tsrf_ave_S              =  -6.7842361583242E+00
(PID.TID 0000.0001) %MON land_Tsrf_ave_T              =   9.5482841321110E+00
(PID.TID 0000.0001) %MON land_Tsrf_ave_N              =  -2.1328537627170E+01
(PID.TID 0000.0001) %MON land_Tsrf_min_S              =  -3.1694345969185E+01
(PID.TID 0000.0001) %MON land_Tsrf_min_T              =  -3.3758031740811E+00
(PID.TID 0000.0001) %MON land_Tsrf_min_N              =  -5.0555195125060E+01
(PID.TID 0000.0001) %MON land_Tsrf_max_S              =   1.9769625512168E+01
(PID.TID 0000.0001) %MON land_Tsrf_max_T              =   1.9526536255555E+01
(PID.TID 0000.0001) %MON land_Tsrf_max_N              =   7.3625682286091E+00
(PID.TID 0000.0001) %MON land_Tgr1_ave_G              =  -7.5681532503140E+00
(PID.TID 0000.0001) %MON land_Tgr1_ave_S              =  -7.3327081356348E+00
(PID.TID 0000.0001) %MON land_Tgr1_ave_T              =   9.5482841321110E+00
(PID.TID 0000.0001) %MON land_Tgr1_ave_N              =  -1.9074383709099E+01
(PID.TID 0000.0001) %MON land_Tgr1_min_S              =  -3.9374956083789E+01
(PID.TID 0000.0001) %MON land_Tgr1_min_T              =  -3.3758031740811E+00
(PID.TID 0000.0001) %MON land_Tgr1_min_N              =  -5.4439564744312E+01
(PID.TID 0000.0001) %MON land_Tgr1_max_S              =   1.9769625512168E+01
(PID.TID 0000.0001) %MON land_Tgr1_max_T              =   1.9526536255555E+01
(PID.TID 0000.0001) %MON land_Tgr1_max_N              =   7.3625682286091E+00
(PID.TID 0000.0001) %MON land_Tgr2_ave_G              =   4.2010708325196E+00
(PID.TID 0000.0001) %MON land_Tgr2_ave_S              =  -1.8723769220229E+01
(PID.TID 0000.0001) %MON land_Tgr2_ave_T              =   2.2006484308458E+01
(PID.TID 0000.0001) %MON land_Tgr2_ave_N              =  -2.5218220860086E-01
(PID.TID 0000.0001) %MON land_Tgr2_min_S              =  -6.4745061117890E+01
(PID.TID 0000.0001) %MON land_Tgr2_min_T              =  -9.7024692642435E+00
(PID.TID 0000.0001) %MON land_Tgr2_min_N              =  -4.0203077381743E+01
(PID.TID 0000.0001) %MON land_Tgr2_max_S              =   2.3358913840320E+01
(PID.TID 0000.0001) %MON land_Tgr2_max_T              =   3.1345074645359E+01
(PID.TID 0000.0001) %MON land_Tgr2_max_N              =   2.9813259889358E+01
(PID.TID 0000.0001) %MON land_TotEnerg_G              =  -6.3665577379437E+21
(PID.TID 0000.0001) %MON land_TotEnerg_S              =  -5.0024653675090E+21
(PID.TID 0000.0001) %MON land_TotEnerg_T              =   7.2706841379228E+21
(PID.TID 0000.0001) %MON land_TotEnerg_N              =  -8.6347765083575E+21
(PID.TID 0000.0001) %MON land_grdW_ave_G              =   4.8665085055124E-01
(PID.TID 0000.0001) %MON land_grdW_ave_S              =   3.0841412330367E-01
(PID.TID 0000.0001) %MON land_grdW_ave_T              =   5.6392263736435E-01
(PID.TID 0000.0001) %MON land_grdW_ave_N              =   4.9286993214743E-01
(PID.TID 0000.0001) %MON land_grdW_min_S              =   2.8793488443815E-02
(PID.TID 0000.0001) %MON land_grdW_min_T              =   0.0000000000000E+00
(PID.TID 0000.0001) %MON land_grdW_min_N              =   0.0000000000000E+00
(PID.TID 0000.0001) // =======================================================
(PID.TID 0000.0001) // End MONITOR Land statistics
(PID.TID 0000.0001) // =======================================================
(PID.TID 0000.0001) // =======================================================
(PID.TID 0000.0001) // Begin MONITOR Therm.SeaIce statistics
(PID.TID 0000.0001) // =======================================================
(PID.TID 0000.0001) %MON thSI_time_sec                =   1.8000000000000E+04
(PID.TID 0000.0001) %MON thSI_Ice_Area_G              =   2.5710584909342E+11
(PID.TID 0000.0001) %MON thSI_Ice_Area_S              =   0.0000000000000E+00
(PID.TID 0000.0001) %MON thSI_Ice_Area_N              =   2.5710584909342E+11
(PID.TID 0000.0001) %MON thSI_IceH_ave_G              =   1.0696029886391E-01
(PID.TID 0000.0001) %MON thSI_IceH_ave_S              =   0.0000000000000E+00
(PID.TID 0000.0001) %MON thSI_IceH_ave_N              =   1.0696029886391E-01
(PID.TID 0000.0001) %MON thSI_IceH_max_S              =   0.0000000000000E+00
(PID.TID 0000.0001) %MON thSI_IceH_max_N              =   1.4844097904519E-01
(PID.TID 0000.0001) %MON thSI_SnwH_ave_G              =   0.0000000000000E+00
(PID.TID 0000.0001) %MON thSI_SnwH_ave_S              =   0.0000000000000E+00
(PID.TID 0000.0001) %MON thSI_SnwH_ave_N              =   0.0000000000000E+00
(PID.TID 0000.0001) %MON thSI_SnwH_max_S              =   0.0000000000000E+00
(PID.TID 0000.0001) %MON thSI_SnwH_max_N              =   0.0000000000000E+00
(PID.TID 0000.0001) %MON thSI_Tsrf_ave_G              =  -7.8708144177891E+00
(PID.TID 0000.0001) %MON thSI_Tsrf_ave_S              =   0.0000000000000E+00
(PID.TID 0000.0001) %MON thSI_Tsrf_ave_N              =  -7.8708144177891E+00
(PID.TID 0000.0001) %MON thSI_Tsrf_min_S              =   0.0000000000000E+00
(PID.TID 0000.0001) %MON thSI_Tsrf_min_N              =  -9.7395737062083E+00
(PID.TID 0000.0001) %MON thSI_Tsrf_max_S              =   0.0000000000000E+00
(PID.TID 0000.0001) %MON thSI_Tsrf_max_N              =  -3.4300290199297E+00
(PID.TID 0000.0001) %MON thSI_Tic1_ave_G              =  -7.0289278644859E+00
(PID.TID 0000.0001) %MON thSI_Tic1_ave_S              =   0.0000000000000E+00
(PID.TID 0000.0001) %MON thSI_Tic1_ave_N              =  -7.0289278644859E+00
(PID.TID 0000.0001) %MON thSI_Tic1_min_S              =   0.0000000000000E+00
(PID.TID 0000.0001) %MON thSI_Tic1_min_N              =  -7.5288020416707E+00
(PID.TID 0000.0001) %MON thSI_Tic1_max_S              =   0.0000000000000E+00
(PID.TID 0000.0001) %MON thSI_Tic1_max_N              =  -2.9754992510626E+00
(PID.TID 0000.0001) %MON thSI_Tic2_ave_G              =  -3.4054778851396E+00
(PID.TID 0000.0001) %MON thSI_Tic2_ave_S              =   0.0000000000000E+00
(PID.TID 0000.0001) %MON thSI_Tic2_ave_N              =  -3.4054778851396E+00
(PID.TID 0000.0001) %MON thSI_Tic2_min_S              =   0.0000000000000E+00
(PID.TID 0000.0001) %MON thSI_Tic2_min_N              =  -3.5760563394086E+00
(PID.TID 0000.0001) %MON thSI_Tic2_max_S              =   0.0000000000000E+00
(PID.TID 0000.0001) %MON thSI_Tic2_max_N              =  -2.0669613539841E+00
(PID.TID 0000.0001) %MON thSI_TotEnerg_G              =  -8.5062643509867E+18
(PID.TID 0000.0001) // =======================================================
(PID.TID 0000.0001) // End MONITOR Therm.SeaIce statistics
(PID.TID 0000.0001) // =======================================================
(PID.TID 0000.0001) %CHECKPOINT        40 ckptA
(PID.TID 0000.0001)   Seconds in section "ALL                    [THE_MODEL_MAIN]":
(PID.TID 0000.0001)           User time:   25.169172447640449
(PID.TID 0000.0001)         System time:  7.89880009833723307E-002
(PID.TID 0000.0001)     Wall clock time:   25.438029050827026
(PID.TID 0000.0001)          No. starts:           1
(PID.TID 0000.0001)           No. stops:           1
(PID.TID 0000.0001)   Seconds in section "INITIALISE_FIXED       [THE_MODEL_MAIN]":
(PID.TID 0000.0001)           User time:  0.21896600397303700
(PID.TID 0000.0001)         System time:  1.89970007631927729E-002
(PID.TID 0000.0001)     Wall clock time:  0.31527900695800781
(PID.TID 0000.0001)          No. starts:           1
(PID.TID 0000.0001)           No. stops:           1
(PID.TID 0000.0001)   Seconds in section "THE_MAIN_LOOP          [THE_MODEL_MAIN]":
(PID.TID 0000.0001)           User time:   24.950206443667412
(PID.TID 0000.0001)         System time:  5.99910002201795578E-002
(PID.TID 0000.0001)     Wall clock time:   25.122713804244995
(PID.TID 0000.0001)          No. starts:           1
(PID.TID 0000.0001)           No. stops:           1
(PID.TID 0000.0001)   Seconds in section "INITIALISE_VARIA    [THE_MAIN_LOOP]":
(PID.TID 0000.0001)           User time:  0.22996498644351959
(PID.TID 0000.0001)         System time:  1.39979999512434006E-002
(PID.TID 0000.0001)     Wall clock time:  0.26139712333679199
(PID.TID 0000.0001)          No. starts:           1
(PID.TID 0000.0001)           No. stops:           1
(PID.TID 0000.0001)   Seconds in section "MAIN LOOP           [THE_MAIN_LOOP]":
(PID.TID 0000.0001)           User time:   24.720241457223892
(PID.TID 0000.0001)         System time:  4.59930002689361572E-002
(PID.TID 0000.0001)     Wall clock time:   24.861288070678711
(PID.TID 0000.0001)          No. starts:           1
(PID.TID 0000.0001)           No. stops:           1
(PID.TID 0000.0001)   Seconds in section "MAIN_DO_LOOP        [THE_MAIN_LOOP]":
(PID.TID 0000.0001)           User time:   24.720241457223892
(PID.TID 0000.0001)         System time:  4.59930002689361572E-002
(PID.TID 0000.0001)     Wall clock time:   24.860936164855957
(PID.TID 0000.0001)          No. starts:          40
(PID.TID 0000.0001)           No. stops:          40
(PID.TID 0000.0001)   Seconds in section "FORWARD_STEP        [MAIN_DO_LOOP]":
(PID.TID 0000.0001)           User time:   24.720241457223892
(PID.TID 0000.0001)         System time:  4.59930002689361572E-002
(PID.TID 0000.0001)     Wall clock time:   24.860228538513184
(PID.TID 0000.0001)          No. starts:          40
(PID.TID 0000.0001)           No. stops:          40
(PID.TID 0000.0001)   Seconds in section "LOAD_FIELDS_DRIVER  [FORWARD_STEP]":
(PID.TID 0000.0001)           User time:  1.79983377456665039E-002
(PID.TID 0000.0001)         System time:  4.99900057911872864E-003
(PID.TID 0000.0001)     Wall clock time:  3.72502803802490234E-002
(PID.TID 0000.0001)          No. starts:          40
(PID.TID 0000.0001)           No. stops:          40
(PID.TID 0000.0001)   Seconds in section "EXTERNAL_FLDS_LOAD [LOAD_FLDS_DRIVER]":
(PID.TID 0000.0001)           User time:   0.0000000000000000
(PID.TID 0000.0001)         System time:   0.0000000000000000
(PID.TID 0000.0001)     Wall clock time:  3.52382659912109375E-004
(PID.TID 0000.0001)          No. starts:          40
(PID.TID 0000.0001)           No. stops:          40
(PID.TID 0000.0001)   Seconds in section "CPL_EXPORT-IMPORT  [FORWARD_STEP]":
(PID.TID 0000.0001)           User time:  0.32195159792900085
(PID.TID 0000.0001)         System time:  1.49980001151561737E-002
(PID.TID 0000.0001)     Wall clock time:  0.33605480194091797
(PID.TID 0000.0001)          No. starts:          40
(PID.TID 0000.0001)           No. stops:          40
(PID.TID 0000.0001)   Seconds in section "DO_ATMOSPHERIC_PHYS [FORWARD_STEP]":
(PID.TID 0000.0001)           User time:   3.8794065117835999
(PID.TID 0000.0001)         System time:  3.00000235438346863E-003
(PID.TID 0000.0001)     Wall clock time:   3.9036664962768555
(PID.TID 0000.0001)          No. starts:          40
(PID.TID 0000.0001)           No. stops:          40
(PID.TID 0000.0001)   Seconds in section "AIM_DO_PHYSICS [DO_ATMOSPHERIC_PHYS]":
(PID.TID 0000.0001)           User time:   3.8004207611083984
(PID.TID 0000.0001)         System time:  2.00000032782554626E-003
(PID.TID 0000.0001)     Wall clock time:   3.8227171897888184
(PID.TID 0000.0001)          No. starts:          40
(PID.TID 0000.0001)           No. stops:          40
(PID.TID 0000.0001)   Seconds in section "DO_OCEANIC_PHYS     [FORWARD_STEP]":
(PID.TID 0000.0001)           User time:  1.00040435791015625E-003
(PID.TID 0000.0001)         System time:   0.0000000000000000
(PID.TID 0000.0001)     Wall clock time:  1.53255462646484375E-003
(PID.TID 0000.0001)          No. starts:          40
(PID.TID 0000.0001)           No. stops:          40
(PID.TID 0000.0001)   Seconds in section "DYNAMICS            [FORWARD_STEP]":
(PID.TID 0000.0001)           User time:   5.0272283554077148
(PID.TID 0000.0001)         System time:   0.0000000000000000
(PID.TID 0000.0001)     Wall clock time:   5.0379879474639893
(PID.TID 0000.0001)          No. starts:          40
(PID.TID 0000.0001)           No. stops:          40
(PID.TID 0000.0001)   Seconds in section "UPDATE_R_STAR       [FORWARD_STEP]":
(PID.TID 0000.0001)           User time:  0.31595790386199951
(PID.TID 0000.0001)         System time:   0.0000000000000000
(PID.TID 0000.0001)     Wall clock time:  0.31801152229309082
(PID.TID 0000.0001)          No. starts:          40
(PID.TID 0000.0001)           No. stops:          40
(PID.TID 0000.0001)   Seconds in section "UPDATE_CG2D         [FORWARD_STEP]":
(PID.TID 0000.0001)           User time:  0.20996296405792236
(PID.TID 0000.0001)         System time:   0.0000000000000000
(PID.TID 0000.0001)     Wall clock time:  0.20584225654602051
(PID.TID 0000.0001)          No. starts:          40
(PID.TID 0000.0001)           No. stops:          40
(PID.TID 0000.0001)   Seconds in section "SOLVE_FOR_PRESSURE  [FORWARD_STEP]":
(PID.TID 0000.0001)           User time:   1.9087152481079102
(PID.TID 0000.0001)         System time:   0.0000000000000000
(PID.TID 0000.0001)     Wall clock time:   1.9181275367736816
(PID.TID 0000.0001)          No. starts:          40
(PID.TID 0000.0001)           No. stops:          40
(PID.TID 0000.0001)   Seconds in section "MOM_CORRECTION_STEP [FORWARD_STEP]":
(PID.TID 0000.0001)           User time:   1.9527003765106201
(PID.TID 0000.0001)         System time:   0.0000000000000000
(PID.TID 0000.0001)     Wall clock time:   1.9564268589019775
(PID.TID 0000.0001)          No. starts:          40
(PID.TID 0000.0001)           No. stops:          40
(PID.TID 0000.0001)   Seconds in section "SHAP_FILT_UV       [MOM_CORR_STEP]":
(PID.TID 0000.0001)           User time:   1.7837313413619995
(PID.TID 0000.0001)         System time:   0.0000000000000000
(PID.TID 0000.0001)     Wall clock time:   1.7874305248260498
(PID.TID 0000.0001)          No. starts:          40
(PID.TID 0000.0001)           No. stops:          40
(PID.TID 0000.0001)   Seconds in section "INTEGR_CONTINUITY   [FORWARD_STEP]":
(PID.TID 0000.0001)           User time:  0.49592471122741699
(PID.TID 0000.0001)         System time:   0.0000000000000000
(PID.TID 0000.0001)     Wall clock time:  0.49763584136962891
(PID.TID 0000.0001)          No. starts:          40
(PID.TID 0000.0001)           No. stops:          40
(PID.TID 0000.0001)   Seconds in section "CALC_R_STAR         [FORWARD_STEP]":
(PID.TID 0000.0001)           User time:  0.22296965122222900
(PID.TID 0000.0001)         System time:   0.0000000000000000
(PID.TID 0000.0001)     Wall clock time:  0.21766352653503418
(PID.TID 0000.0001)          No. starts:          40
(PID.TID 0000.0001)           No. stops:          40
(PID.TID 0000.0001)   Seconds in section "BLOCKING_EXCHANGES  [FORWARD_STEP]":
(PID.TID 0000.0001)           User time:  0.13697504997253418
(PID.TID 0000.0001)         System time:   0.0000000000000000
(PID.TID 0000.0001)     Wall clock time:  0.14603376388549805
(PID.TID 0000.0001)          No. starts:          80
(PID.TID 0000.0001)           No. stops:          80
(PID.TID 0000.0001)   Seconds in section "THERMODYNAMICS      [FORWARD_STEP]":
(PID.TID 0000.0001)           User time:   3.5444606542587280
(PID.TID 0000.0001)         System time:  9.99998301267623901E-004
(PID.TID 0000.0001)     Wall clock time:   3.5537250041961670
(PID.TID 0000.0001)          No. starts:          40
(PID.TID 0000.0001)           No. stops:          40
(PID.TID 0000.0001)   Seconds in section "TRC_CORRECTION_STEP [FORWARD_STEP]":
(PID.TID 0000.0001)           User time:   1.9627000093460083
(PID.TID 0000.0001)         System time:   0.0000000000000000
(PID.TID 0000.0001)     Wall clock time:   1.9655537605285645
(PID.TID 0000.0001)          No. starts:          40
(PID.TID 0000.0001)           No. stops:          40
(PID.TID 0000.0001)   Seconds in section "SHAP_FILT_TS       [TRC_CORR_STEP]":
(PID.TID 0000.0001)           User time:   1.9616996049880981
(PID.TID 0000.0001)         System time:   0.0000000000000000
(PID.TID 0000.0001)     Wall clock time:   1.9647800922393799
(PID.TID 0000.0001)          No. starts:          40
(PID.TID 0000.0001)           No. stops:          40
(PID.TID 0000.0001)   Seconds in section "DO_STATEVARS_TAVE   [FORWARD_STEP]":
(PID.TID 0000.0001)           User time:   1.3487991094589233
(PID.TID 0000.0001)         System time:  9.98999923467636108E-004
(PID.TID 0000.0001)     Wall clock time:   1.3476262092590332
(PID.TID 0000.0001)          No. starts:          40
(PID.TID 0000.0001)           No. stops:          40
(PID.TID 0000.0001)   Seconds in section "MONITOR             [FORWARD_STEP]":
(PID.TID 0000.0001)           User time:   2.9665435552597046
(PID.TID 0000.0001)         System time:   0.0000000000000000
(PID.TID 0000.0001)     Wall clock time:   2.9768116474151611
(PID.TID 0000.0001)          No. starts:          40
(PID.TID 0000.0001)           No. stops:          40
(PID.TID 0000.0001)   Seconds in section "DO_THE_MODEL_IO     [FORWARD_STEP]":
(PID.TID 0000.0001)           User time:  0.36594808101654053
(PID.TID 0000.0001)         System time:  1.49979926645755768E-002
(PID.TID 0000.0001)     Wall clock time:  0.39438772201538086
(PID.TID 0000.0001)          No. starts:          40
(PID.TID 0000.0001)           No. stops:          40
(PID.TID 0000.0001)   Seconds in section "DO_WRITE_PICKUP     [FORWARD_STEP]":
(PID.TID 0000.0001)           User time:  3.39956283569335938E-002
(PID.TID 0000.0001)         System time:  5.99900633096694946E-003
(PID.TID 0000.0001)     Wall clock time:  3.84101867675781250E-002
(PID.TID 0000.0001)          No. starts:          40
(PID.TID 0000.0001)           No. stops:          40
(PID.TID 0000.0001) // ======================================================
(PID.TID 0000.0001) // Tile <-> Tile communication statistics
(PID.TID 0000.0001) // ======================================================
(PID.TID 0000.0001) // o Tile number: 000001
(PID.TID 0000.0001) //         No. X exchanges =              0
(PID.TID 0000.0001) //            Max. X spins =              0
(PID.TID 0000.0001) //            Min. X spins =     1000000000
(PID.TID 0000.0001) //          Total. X spins =              0
(PID.TID 0000.0001) //            Avg. X spins =       0.00E+00
(PID.TID 0000.0001) //         No. Y exchanges =              0
(PID.TID 0000.0001) //            Max. Y spins =              0
(PID.TID 0000.0001) //            Min. Y spins =     1000000000
(PID.TID 0000.0001) //          Total. Y spins =              0
(PID.TID 0000.0001) //            Avg. Y spins =       0.00E+00
(PID.TID 0000.0001) // o Tile number: 000002
(PID.TID 0000.0001) //         No. X exchanges =              0
(PID.TID 0000.0001) //            Max. X spins =              0
(PID.TID 0000.0001) //            Min. X spins =     1000000000
(PID.TID 0000.0001) //          Total. X spins =              0
(PID.TID 0000.0001) //            Avg. X spins =       0.00E+00
(PID.TID 0000.0001) //         No. Y exchanges =              0
(PID.TID 0000.0001) //            Max. Y spins =              0
(PID.TID 0000.0001) //            Min. Y spins =     1000000000
(PID.TID 0000.0001) //          Total. Y spins =              0
(PID.TID 0000.0001) //            Avg. Y spins =       0.00E+00
(PID.TID 0000.0001) // o Tile number: 000003
(PID.TID 0000.0001) //         No. X exchanges =              0
(PID.TID 0000.0001) //            Max. X spins =              0
(PID.TID 0000.0001) //            Min. X spins =     1000000000
(PID.TID 0000.0001) //          Total. X spins =              0
(PID.TID 0000.0001) //            Avg. X spins =       0.00E+00
(PID.TID 0000.0001) //         No. Y exchanges =              0
(PID.TID 0000.0001) //            Max. Y spins =              0
(PID.TID 0000.0001) //            Min. Y spins =     1000000000
(PID.TID 0000.0001) //          Total. Y spins =              0
(PID.TID 0000.0001) //            Avg. Y spins =       0.00E+00
(PID.TID 0000.0001) // o Tile number: 000004
(PID.TID 0000.0001) //         No. X exchanges =              0
(PID.TID 0000.0001) //            Max. X spins =              0
(PID.TID 0000.0001) //            Min. X spins =     1000000000
(PID.TID 0000.0001) //          Total. X spins =              0
(PID.TID 0000.0001) //            Avg. X spins =       0.00E+00
(PID.TID 0000.0001) //         No. Y exchanges =              0
(PID.TID 0000.0001) //            Max. Y spins =              0
(PID.TID 0000.0001) //            Min. Y spins =     1000000000
(PID.TID 0000.0001) //          Total. Y spins =              0
(PID.TID 0000.0001) //            Avg. Y spins =       0.00E+00
(PID.TID 0000.0001) // o Tile number: 000005
(PID.TID 0000.0001) //         No. X exchanges =              0
(PID.TID 0000.0001) //            Max. X spins =              0
(PID.TID 0000.0001) //            Min. X spins =     1000000000
(PID.TID 0000.0001) //          Total. X spins =              0
(PID.TID 0000.0001) //            Avg. X spins =       0.00E+00
(PID.TID 0000.0001) //         No. Y exchanges =              0
(PID.TID 0000.0001) //            Max. Y spins =              0
(PID.TID 0000.0001) //            Min. Y spins =     1000000000
(PID.TID 0000.0001) //          Total. Y spins =              0
(PID.TID 0000.0001) //            Avg. Y spins =       0.00E+00
(PID.TID 0000.0001) // o Tile number: 000006
(PID.TID 0000.0001) //         No. X exchanges =              0
(PID.TID 0000.0001) //            Max. X spins =              0
(PID.TID 0000.0001) //            Min. X spins =     1000000000
(PID.TID 0000.0001) //          Total. X spins =              0
(PID.TID 0000.0001) //            Avg. X spins =       0.00E+00
(PID.TID 0000.0001) //         No. Y exchanges =              0
(PID.TID 0000.0001) //            Max. Y spins =              0
(PID.TID 0000.0001) //            Min. Y spins =     1000000000
(PID.TID 0000.0001) //          Total. Y spins =              0
(PID.TID 0000.0001) //            Avg. Y spins =       0.00E+00
(PID.TID 0000.0001) // o Thread number: 000001
(PID.TID 0000.0001) //            No. barriers =          31728
(PID.TID 0000.0001) //      Max. barrier spins =              1
(PID.TID 0000.0001) //      Min. barrier spins =              1
(PID.TID 0000.0001) //     Total barrier spins =          31728
(PID.TID 0000.0001) //      Avg. barrier spins =       1.00E+00
PROGRAM MAIN: Execution ended Normally
