(PID.TID 0000.0001) 
(PID.TID 0000.0001) // ======================================================
(PID.TID 0000.0001) //                      MITgcm UV
(PID.TID 0000.0001) //                      =========
(PID.TID 0000.0001) // ======================================================
(PID.TID 0000.0001) // execution environment starting up...
(PID.TID 0000.0001) 
(PID.TID 0000.0001) // MITgcmUV version:  checkpoint61l
(PID.TID 0000.0001) // Build user:        jmc
(PID.TID 0000.0001) // Build host:        faulks
(PID.TID 0000.0001) // Build date:        Tue Apr 21 14:28:44 EDT 2009
(PID.TID 0000.0001) 
(PID.TID 0000.0001) // =======================================================
(PID.TID 0000.0001) // Execution Environment parameter file "eedata"
(PID.TID 0000.0001) // =======================================================
(PID.TID 0000.0001) ># Example "eedata" file
(PID.TID 0000.0001) ># Lines beginning "#" are comments
(PID.TID 0000.0001) ># nTx - No. threads per process in X
(PID.TID 0000.0001) ># nTy - No. threads per process in Y
(PID.TID 0000.0001) > &EEPARMS
(PID.TID 0000.0001) > useCubedSphereExchange=.TRUE.,
(PID.TID 0000.0001) > &
(PID.TID 0000.0001) ># Note: Some systems use & as the
(PID.TID 0000.0001) ># namelist terminator. Other systems
(PID.TID 0000.0001) ># use a / character (as shown here).
(PID.TID 0000.0001) 
(PID.TID 0000.0001) // =======================================================
(PID.TID 0000.0001) // Computational Grid Specification ( see files "SIZE.h" )
(PID.TID 0000.0001) //                                  ( and "eedata"       )
(PID.TID 0000.0001) // =======================================================
(PID.TID 0000.0001)      nPx =    1 ; /* No. processes in X */
(PID.TID 0000.0001)      nPy =    1 ; /* No. processes in Y */
(PID.TID 0000.0001)      nSx =   48 ; /* No. tiles in X per process */
(PID.TID 0000.0001)      nSy =    1 ; /* No. tiles in Y per process */
(PID.TID 0000.0001)      sNx =   16 ; /* Tile size in X */
(PID.TID 0000.0001)      sNy =    8 ; /* Tile size in Y */
(PID.TID 0000.0001)      OLx =    2 ; /* Tile overlap distance in X */
(PID.TID 0000.0001)      OLy =    2 ; /* Tile overlap distance in Y */
(PID.TID 0000.0001)      nTx =    1 ; /* No. threads in X per process */
(PID.TID 0000.0001)      nTy =    1 ; /* No. threads in Y per process */
(PID.TID 0000.0001)       Nr =    1 ; /* No. levels in the vertical   */
(PID.TID 0000.0001)       Nx =  768 ; /* Total domain size in X ( = nPx*nSx*sNx ) */
(PID.TID 0000.0001)       Ny =    8 ; /* Total domain size in Y ( = nPy*nSy*sNy ) */
(PID.TID 0000.0001)   nTiles =   48 ; /* Total no. tiles per process ( = nSx*nSy ) */
(PID.TID 0000.0001)   nProcs =    1 ; /* Total no. processes ( = nPx*nPy ) */
(PID.TID 0000.0001) nThreads =    1 ; /* Total no. threads per process ( = nTx*nTy ) */
(PID.TID 0000.0001) usingMPI =    F ; /* Flag used to control whether MPI is in use */
(PID.TID 0000.0001)                   /*  note: To execute a program with MPI calls */
(PID.TID 0000.0001)                   /*  it must be launched appropriately e.g     */
(PID.TID 0000.0001)                   /*  "mpirun -np 64 ......"                    */
(PID.TID 0000.0001) useCoupler=   F ; /* Flag used to control communications with */
(PID.TID 0000.0001)                   /*  other model components, through a coupler */
(PID.TID 0000.0001) printMapIncludesZeros= /* print zeros in Std.Output maps */
(PID.TID 0000.0001)                   F
(PID.TID 0000.0001)     ;
(PID.TID 0000.0001) maxLengthPrt1D= /* max length of 1.D array printed to Std.Out */
(PID.TID 0000.0001)                      65
(PID.TID 0000.0001)     ;
(PID.TID 0000.0001) 
(PID.TID 0000.0001) // ======================================================
(PID.TID 0000.0001) // Mapping of tiles to threads
(PID.TID 0000.0001) // ======================================================
(PID.TID 0000.0001) // -o- Thread   1, tiles (   1:  48,   1:   1)
(PID.TID 0000.0001) 
(PID.TID 0000.0001) ===== W2 TILE TOPLOGY =====
(PID.TID 0000.0001)  TILE:    1
(PID.TID 0000.0001)       NEIGHBOUR    1 = TILE    3 Comm = PUT ( PROC =    1)
(PID.TID 0000.0001)       NEIGHBOUR    2 = TILE   47 Comm = PUT ( PROC =    1)
(PID.TID 0000.0001)       NEIGHBOUR    3 = TILE    2 Comm = PUT ( PROC =    1)
(PID.TID 0000.0001)       NEIGHBOUR    4 = TILE   40 Comm = PUT ( PROC =    1)
(PID.TID 0000.0001)  TILE:    2
(PID.TID 0000.0001)       NEIGHBOUR    1 = TILE    4 Comm = PUT ( PROC =    1)
(PID.TID 0000.0001)       NEIGHBOUR    2 = TILE   48 Comm = PUT ( PROC =    1)
(PID.TID 0000.0001)       NEIGHBOUR    3 = TILE    9 Comm = PUT ( PROC =    1)
(PID.TID 0000.0001)       NEIGHBOUR    4 = TILE    1 Comm = PUT ( PROC =    1)
(PID.TID 0000.0001)  TILE:    3
(PID.TID 0000.0001)       NEIGHBOUR    1 = TILE    5 Comm = PUT ( PROC =    1)
(PID.TID 0000.0001)       NEIGHBOUR    2 = TILE    1 Comm = PUT ( PROC =    1)
(PID.TID 0000.0001)       NEIGHBOUR    3 = TILE    4 Comm = PUT ( PROC =    1)
(PID.TID 0000.0001)       NEIGHBOUR    4 = TILE   40 Comm = PUT ( PROC =    1)
(PID.TID 0000.0001)  TILE:    4
(PID.TID 0000.0001)       NEIGHBOUR    1 = TILE    6 Comm = PUT ( PROC =    1)
(PID.TID 0000.0001)       NEIGHBOUR    2 = TILE    2 Comm = PUT ( PROC =    1)
(PID.TID 0000.0001)       NEIGHBOUR    3 = TILE   11 Comm = PUT ( PROC =    1)
(PID.TID 0000.0001)       NEIGHBOUR    4 = TILE    3 Comm = PUT ( PROC =    1)
(PID.TID 0000.0001)  TILE:    5
(PID.TID 0000.0001)       NEIGHBOUR    1 = TILE    7 Comm = PUT ( PROC =    1)
(PID.TID 0000.0001)       NEIGHBOUR    2 = TILE    3 Comm = PUT ( PROC =    1)
(PID.TID 0000.0001)       NEIGHBOUR    3 = TILE    6 Comm = PUT ( PROC =    1)
(PID.TID 0000.0001)       NEIGHBOUR    4 = TILE   39 Comm = PUT ( PROC =    1)
(PID.TID 0000.0001)  TILE:    6
(PID.TID 0000.0001)       NEIGHBOUR    1 = TILE    8 Comm = PUT ( PROC =    1)
(PID.TID 0000.0001)       NEIGHBOUR    2 = TILE    4 Comm = PUT ( PROC =    1)
(PID.TID 0000.0001)       NEIGHBOUR    3 = TILE   13 Comm = PUT ( PROC =    1)
(PID.TID 0000.0001)       NEIGHBOUR    4 = TILE    5 Comm = PUT ( PROC =    1)
(PID.TID 0000.0001)  TILE:    7
(PID.TID 0000.0001)       NEIGHBOUR    1 = TILE   21 Comm = PUT ( PROC =    1)
(PID.TID 0000.0001)       NEIGHBOUR    2 = TILE   23 Comm = PUT ( PROC =    1)
(PID.TID 0000.0001)       NEIGHBOUR    3 = TILE    5 Comm = PUT ( PROC =    1)
(PID.TID 0000.0001)       NEIGHBOUR    4 = TILE    8 Comm = PUT ( PROC =    1)
(PID.TID 0000.0001)       NEIGHBOUR    5 = TILE   39 Comm = PUT ( PROC =    1)
(PID.TID 0000.0001)  TILE:    8
(PID.TID 0000.0001)       NEIGHBOUR    1 = TILE   17 Comm = PUT ( PROC =    1)
(PID.TID 0000.0001)       NEIGHBOUR    2 = TILE   19 Comm = PUT ( PROC =    1)
(PID.TID 0000.0001)       NEIGHBOUR    3 = TILE    6 Comm = PUT ( PROC =    1)
(PID.TID 0000.0001)       NEIGHBOUR    4 = TILE   15 Comm = PUT ( PROC =    1)
(PID.TID 0000.0001)       NEIGHBOUR    5 = TILE    7 Comm = PUT ( PROC =    1)
(PID.TID 0000.0001)  TILE:    9
(PID.TID 0000.0001)       NEIGHBOUR    1 = TILE   11 Comm = PUT ( PROC =    1)
(PID.TID 0000.0001)       NEIGHBOUR    2 = TILE   46 Comm = PUT ( PROC =    1)
(PID.TID 0000.0001)       NEIGHBOUR    3 = TILE   48 Comm = PUT ( PROC =    1)
(PID.TID 0000.0001)       NEIGHBOUR    4 = TILE   10 Comm = PUT ( PROC =    1)
(PID.TID 0000.0001)       NEIGHBOUR    5 = TILE    2 Comm = PUT ( PROC =    1)
(PID.TID 0000.0001)  TILE:   10
(PID.TID 0000.0001)       NEIGHBOUR    1 = TILE   12 Comm = PUT ( PROC =    1)
(PID.TID 0000.0001)       NEIGHBOUR    2 = TILE   42 Comm = PUT ( PROC =    1)
(PID.TID 0000.0001)       NEIGHBOUR    3 = TILE   44 Comm = PUT ( PROC =    1)
(PID.TID 0000.0001)       NEIGHBOUR    4 = TILE   26 Comm = PUT ( PROC =    1)
(PID.TID 0000.0001)       NEIGHBOUR    5 = TILE    9 Comm = PUT ( PROC =    1)
(PID.TID 0000.0001)  TILE:   11
(PID.TID 0000.0001)       NEIGHBOUR    1 = TILE   13 Comm = PUT ( PROC =    1)
(PID.TID 0000.0001)       NEIGHBOUR    2 = TILE    9 Comm = PUT ( PROC =    1)
(PID.TID 0000.0001)       NEIGHBOUR    3 = TILE   12 Comm = PUT ( PROC =    1)
(PID.TID 0000.0001)       NEIGHBOUR    4 = TILE    4 Comm = PUT ( PROC =    1)
(PID.TID 0000.0001)  TILE:   12
(PID.TID 0000.0001)       NEIGHBOUR    1 = TILE   14 Comm = PUT ( PROC =    1)
(PID.TID 0000.0001)       NEIGHBOUR    2 = TILE   10 Comm = PUT ( PROC =    1)
(PID.TID 0000.0001)       NEIGHBOUR    3 = TILE   26 Comm = PUT ( PROC =    1)
(PID.TID 0000.0001)       NEIGHBOUR    4 = TILE   11 Comm = PUT ( PROC =    1)
(PID.TID 0000.0001)  TILE:   13
(PID.TID 0000.0001)       NEIGHBOUR    1 = TILE   15 Comm = PUT ( PROC =    1)
(PID.TID 0000.0001)       NEIGHBOUR    2 = TILE   11 Comm = PUT ( PROC =    1)
(PID.TID 0000.0001)       NEIGHBOUR    3 = TILE   14 Comm = PUT ( PROC =    1)
(PID.TID 0000.0001)       NEIGHBOUR    4 = TILE    6 Comm = PUT ( PROC =    1)
(PID.TID 0000.0001)  TILE:   14
(PID.TID 0000.0001)       NEIGHBOUR    1 = TILE   16 Comm = PUT ( PROC =    1)
(PID.TID 0000.0001)       NEIGHBOUR    2 = TILE   12 Comm = PUT ( PROC =    1)
(PID.TID 0000.0001)       NEIGHBOUR    3 = TILE   25 Comm = PUT ( PROC =    1)
(PID.TID 0000.0001)       NEIGHBOUR    4 = TILE   13 Comm = PUT ( PROC =    1)
(PID.TID 0000.0001)  TILE:   15
(PID.TID 0000.0001)       NEIGHBOUR    1 = TILE   17 Comm = PUT ( PROC =    1)
(PID.TID 0000.0001)       NEIGHBOUR    2 = TILE   13 Comm = PUT ( PROC =    1)
(PID.TID 0000.0001)       NEIGHBOUR    3 = TILE   16 Comm = PUT ( PROC =    1)
(PID.TID 0000.0001)       NEIGHBOUR    4 = TILE    8 Comm = PUT ( PROC =    1)
(PID.TID 0000.0001)  TILE:   16
(PID.TID 0000.0001)       NEIGHBOUR    1 = TILE   18 Comm = PUT ( PROC =    1)
(PID.TID 0000.0001)       NEIGHBOUR    2 = TILE   14 Comm = PUT ( PROC =    1)
(PID.TID 0000.0001)       NEIGHBOUR    3 = TILE   25 Comm = PUT ( PROC =    1)
(PID.TID 0000.0001)       NEIGHBOUR    4 = TILE   15 Comm = PUT ( PROC =    1)
(PID.TID 0000.0001)  TILE:   17
(PID.TID 0000.0001)       NEIGHBOUR    1 = TILE   19 Comm = PUT ( PROC =    1)
(PID.TID 0000.0001)       NEIGHBOUR    2 = TILE   15 Comm = PUT ( PROC =    1)
(PID.TID 0000.0001)       NEIGHBOUR    3 = TILE   18 Comm = PUT ( PROC =    1)
(PID.TID 0000.0001)       NEIGHBOUR    4 = TILE    8 Comm = PUT ( PROC =    1)
(PID.TID 0000.0001)  TILE:   18
(PID.TID 0000.0001)       NEIGHBOUR    1 = TILE   20 Comm = PUT ( PROC =    1)
(PID.TID 0000.0001)       NEIGHBOUR    2 = TILE   16 Comm = PUT ( PROC =    1)
(PID.TID 0000.0001)       NEIGHBOUR    3 = TILE   25 Comm = PUT ( PROC =    1)
(PID.TID 0000.0001)       NEIGHBOUR    4 = TILE   17 Comm = PUT ( PROC =    1)
(PID.TID 0000.0001)  TILE:   19
(PID.TID 0000.0001)       NEIGHBOUR    1 = TILE   21 Comm = PUT ( PROC =    1)
(PID.TID 0000.0001)       NEIGHBOUR    2 = TILE   17 Comm = PUT ( PROC =    1)
(PID.TID 0000.0001)       NEIGHBOUR    3 = TILE   20 Comm = PUT ( PROC =    1)
(PID.TID 0000.0001)       NEIGHBOUR    4 = TILE    8 Comm = PUT ( PROC =    1)
(PID.TID 0000.0001)  TILE:   20
(PID.TID 0000.0001)       NEIGHBOUR    1 = TILE   22 Comm = PUT ( PROC =    1)
(PID.TID 0000.0001)       NEIGHBOUR    2 = TILE   18 Comm = PUT ( PROC =    1)
(PID.TID 0000.0001)       NEIGHBOUR    3 = TILE   27 Comm = PUT ( PROC =    1)
(PID.TID 0000.0001)       NEIGHBOUR    4 = TILE   19 Comm = PUT ( PROC =    1)
(PID.TID 0000.0001)  TILE:   21
(PID.TID 0000.0001)       NEIGHBOUR    1 = TILE   23 Comm = PUT ( PROC =    1)
(PID.TID 0000.0001)       NEIGHBOUR    2 = TILE   19 Comm = PUT ( PROC =    1)
(PID.TID 0000.0001)       NEIGHBOUR    3 = TILE   22 Comm = PUT ( PROC =    1)
(PID.TID 0000.0001)       NEIGHBOUR    4 = TILE    7 Comm = PUT ( PROC =    1)
(PID.TID 0000.0001)  TILE:   22
(PID.TID 0000.0001)       NEIGHBOUR    1 = TILE   24 Comm = PUT ( PROC =    1)
(PID.TID 0000.0001)       NEIGHBOUR    2 = TILE   20 Comm = PUT ( PROC =    1)
(PID.TID 0000.0001)       NEIGHBOUR    3 = TILE   29 Comm = PUT ( PROC =    1)
(PID.TID 0000.0001)       NEIGHBOUR    4 = TILE   21 Comm = PUT ( PROC =    1)
(PID.TID 0000.0001)  TILE:   23
(PID.TID 0000.0001)       NEIGHBOUR    1 = TILE   37 Comm = PUT ( PROC =    1)
(PID.TID 0000.0001)       NEIGHBOUR    2 = TILE   39 Comm = PUT ( PROC =    1)
(PID.TID 0000.0001)       NEIGHBOUR    3 = TILE   21 Comm = PUT ( PROC =    1)
(PID.TID 0000.0001)       NEIGHBOUR    4 = TILE   24 Comm = PUT ( PROC =    1)
(PID.TID 0000.0001)       NEIGHBOUR    5 = TILE    7 Comm = PUT ( PROC =    1)
(PID.TID 0000.0001)  TILE:   24
(PID.TID 0000.0001)       NEIGHBOUR    1 = TILE   33 Comm = PUT ( PROC =    1)
(PID.TID 0000.0001)       NEIGHBOUR    2 = TILE   35 Comm = PUT ( PROC =    1)
(PID.TID 0000.0001)       NEIGHBOUR    3 = TILE   22 Comm = PUT ( PROC =    1)
(PID.TID 0000.0001)       NEIGHBOUR    4 = TILE   31 Comm = PUT ( PROC =    1)
(PID.TID 0000.0001)       NEIGHBOUR    5 = TILE   23 Comm = PUT ( PROC =    1)
(PID.TID 0000.0001)  TILE:   25
(PID.TID 0000.0001)       NEIGHBOUR    1 = TILE   27 Comm = PUT ( PROC =    1)
(PID.TID 0000.0001)       NEIGHBOUR    2 = TILE   14 Comm = PUT ( PROC =    1)
(PID.TID 0000.0001)       NEIGHBOUR    3 = TILE   16 Comm = PUT ( PROC =    1)
(PID.TID 0000.0001)       NEIGHBOUR    4 = TILE   26 Comm = PUT ( PROC =    1)
(PID.TID 0000.0001)       NEIGHBOUR    5 = TILE   18 Comm = PUT ( PROC =    1)
(PID.TID 0000.0001)  TILE:   26
(PID.TID 0000.0001)       NEIGHBOUR    1 = TILE   28 Comm = PUT ( PROC =    1)
(PID.TID 0000.0001)       NEIGHBOUR    2 = TILE   10 Comm = PUT ( PROC =    1)
(PID.TID 0000.0001)       NEIGHBOUR    3 = TILE   12 Comm = PUT ( PROC =    1)
(PID.TID 0000.0001)       NEIGHBOUR    4 = TILE   42 Comm = PUT ( PROC =    1)
(PID.TID 0000.0001)       NEIGHBOUR    5 = TILE   25 Comm = PUT ( PROC =    1)
(PID.TID 0000.0001)  TILE:   27
(PID.TID 0000.0001)       NEIGHBOUR    1 = TILE   29 Comm = PUT ( PROC =    1)
(PID.TID 0000.0001)       NEIGHBOUR    2 = TILE   25 Comm = PUT ( PROC =    1)
(PID.TID 0000.0001)       NEIGHBOUR    3 = TILE   28 Comm = PUT ( PROC =    1)
(PID.TID 0000.0001)       NEIGHBOUR    4 = TILE   20 Comm = PUT ( PROC =    1)
(PID.TID 0000.0001)  TILE:   28
(PID.TID 0000.0001)       NEIGHBOUR    1 = TILE   30 Comm = PUT ( PROC =    1)
(PID.TID 0000.0001)       NEIGHBOUR    2 = TILE   26 Comm = PUT ( PROC =    1)
(PID.TID 0000.0001)       NEIGHBOUR    3 = TILE   42 Comm = PUT ( PROC =    1)
(PID.TID 0000.0001)       NEIGHBOUR    4 = TILE   27 Comm = PUT ( PROC =    1)
(PID.TID 0000.0001)  TILE:   29
(PID.TID 0000.0001)       NEIGHBOUR    1 = TILE   31 Comm = PUT ( PROC =    1)
(PID.TID 0000.0001)       NEIGHBOUR    2 = TILE   27 Comm = PUT ( PROC =    1)
(PID.TID 0000.0001)       NEIGHBOUR    3 = TILE   30 Comm = PUT ( PROC =    1)
(PID.TID 0000.0001)       NEIGHBOUR    4 = TILE   22 Comm = PUT ( PROC =    1)
(PID.TID 0000.0001)  TILE:   30
(PID.TID 0000.0001)       NEIGHBOUR    1 = TILE   32 Comm = PUT ( PROC =    1)
(PID.TID 0000.0001)       NEIGHBOUR    2 = TILE   28 Comm = PUT ( PROC =    1)
(PID.TID 0000.0001)       NEIGHBOUR    3 = TILE   41 Comm = PUT ( PROC =    1)
(PID.TID 0000.0001)       NEIGHBOUR    4 = TILE   29 Comm = PUT ( PROC =    1)
(PID.TID 0000.0001)  TILE:   31
(PID.TID 0000.0001)       NEIGHBOUR    1 = TILE   33 Comm = PUT ( PROC =    1)
(PID.TID 0000.0001)       NEIGHBOUR    2 = TILE   29 Comm = PUT ( PROC =    1)
(PID.TID 0000.0001)       NEIGHBOUR    3 = TILE   32 Comm = PUT ( PROC =    1)
(PID.TID 0000.0001)       NEIGHBOUR    4 = TILE   24 Comm = PUT ( PROC =    1)
(PID.TID 0000.0001)  TILE:   32
(PID.TID 0000.0001)       NEIGHBOUR    1 = TILE   34 Comm = PUT ( PROC =    1)
(PID.TID 0000.0001)       NEIGHBOUR    2 = TILE   30 Comm = PUT ( PROC =    1)
(PID.TID 0000.0001)       NEIGHBOUR    3 = TILE   41 Comm = PUT ( PROC =    1)
(PID.TID 0000.0001)       NEIGHBOUR    4 = TILE   31 Comm = PUT ( PROC =    1)
(PID.TID 0000.0001)  TILE:   33
(PID.TID 0000.0001)       NEIGHBOUR    1 = TILE   35 Comm = PUT ( PROC =    1)
(PID.TID 0000.0001)       NEIGHBOUR    2 = TILE   31 Comm = PUT ( PROC =    1)
(PID.TID 0000.0001)       NEIGHBOUR    3 = TILE   34 Comm = PUT ( PROC =    1)
(PID.TID 0000.0001)       NEIGHBOUR    4 = TILE   24 Comm = PUT ( PROC =    1)
(PID.TID 0000.0001)  TILE:   34
(PID.TID 0000.0001)       NEIGHBOUR    1 = TILE   36 Comm = PUT ( PROC =    1)
(PID.TID 0000.0001)       NEIGHBOUR    2 = TILE   32 Comm = PUT ( PROC =    1)
(PID.TID 0000.0001)       NEIGHBOUR    3 = TILE   41 Comm = PUT ( PROC =    1)
(PID.TID 0000.0001)       NEIGHBOUR    4 = TILE   33 Comm = PUT ( PROC =    1)
(PID.TID 0000.0001)  TILE:   35
(PID.TID 0000.0001)       NEIGHBOUR    1 = TILE   37 Comm = PUT ( PROC =    1)
(PID.TID 0000.0001)       NEIGHBOUR    2 = TILE   33 Comm = PUT ( PROC =    1)
(PID.TID 0000.0001)       NEIGHBOUR    3 = TILE   36 Comm = PUT ( PROC =    1)
(PID.TID 0000.0001)       NEIGHBOUR    4 = TILE   24 Comm = PUT ( PROC =    1)
(PID.TID 0000.0001)  TILE:   36
(PID.TID 0000.0001)       NEIGHBOUR    1 = TILE   38 Comm = PUT ( PROC =    1)
(PID.TID 0000.0001)       NEIGHBOUR    2 = TILE   34 Comm = PUT ( PROC =    1)
(PID.TID 0000.0001)       NEIGHBOUR    3 = TILE   43 Comm = PUT ( PROC =    1)
(PID.TID 0000.0001)       NEIGHBOUR    4 = TILE   35 Comm = PUT ( PROC =    1)
(PID.TID 0000.0001)  TILE:   37
(PID.TID 0000.0001)       NEIGHBOUR    1 = TILE   39 Comm = PUT ( PROC =    1)
(PID.TID 0000.0001)       NEIGHBOUR    2 = TILE   35 Comm = PUT ( PROC =    1)
(PID.TID 0000.0001)       NEIGHBOUR    3 = TILE   38 Comm = PUT ( PROC =    1)
(PID.TID 0000.0001)       NEIGHBOUR    4 = TILE   23 Comm = PUT ( PROC =    1)
(PID.TID 0000.0001)  TILE:   38
(PID.TID 0000.0001)       NEIGHBOUR    1 = TILE   40 Comm = PUT ( PROC =    1)
(PID.TID 0000.0001)       NEIGHBOUR    2 = TILE   36 Comm = PUT ( PROC =    1)
(PID.TID 0000.0001)       NEIGHBOUR    3 = TILE   45 Comm = PUT ( PROC =    1)
(PID.TID 0000.0001)       NEIGHBOUR    4 = TILE   37 Comm = PUT ( PROC =    1)
(PID.TID 0000.0001)  TILE:   39
(PID.TID 0000.0001)       NEIGHBOUR    1 = TILE    5 Comm = PUT ( PROC =    1)
(PID.TID 0000.0001)       NEIGHBOUR    2 = TILE    7 Comm = PUT ( PROC =    1)
(PID.TID 0000.0001)       NEIGHBOUR    3 = TILE   37 Comm = PUT ( PROC =    1)
(PID.TID 0000.0001)       NEIGHBOUR    4 = TILE   40 Comm = PUT ( PROC =    1)
(PID.TID 0000.0001)       NEIGHBOUR    5 = TILE   23 Comm = PUT ( PROC =    1)
(PID.TID 0000.0001)  TILE:   40
(PID.TID 0000.0001)       NEIGHBOUR    1 = TILE    1 Comm = PUT ( PROC =    1)
(PID.TID 0000.0001)       NEIGHBOUR    2 = TILE    3 Comm = PUT ( PROC =    1)
(PID.TID 0000.0001)       NEIGHBOUR    3 = TILE   38 Comm = PUT ( PROC =    1)
(PID.TID 0000.0001)       NEIGHBOUR    4 = TILE   47 Comm = PUT ( PROC =    1)
(PID.TID 0000.0001)       NEIGHBOUR    5 = TILE   39 Comm = PUT ( PROC =    1)
(PID.TID 0000.0001)  TILE:   41
(PID.TID 0000.0001)       NEIGHBOUR    1 = TILE   43 Comm = PUT ( PROC =    1)
(PID.TID 0000.0001)       NEIGHBOUR    2 = TILE   30 Comm = PUT ( PROC =    1)
(PID.TID 0000.0001)       NEIGHBOUR    3 = TILE   32 Comm = PUT ( PROC =    1)
(PID.TID 0000.0001)       NEIGHBOUR    4 = TILE   42 Comm = PUT ( PROC =    1)
(PID.TID 0000.0001)       NEIGHBOUR    5 = TILE   34 Comm = PUT ( PROC =    1)
(PID.TID 0000.0001)  TILE:   42
(PID.TID 0000.0001)       NEIGHBOUR    1 = TILE   44 Comm = PUT ( PROC =    1)
(PID.TID 0000.0001)       NEIGHBOUR    2 = TILE   26 Comm = PUT ( PROC =    1)
(PID.TID 0000.0001)       NEIGHBOUR    3 = TILE   28 Comm = PUT ( PROC =    1)
(PID.TID 0000.0001)       NEIGHBOUR    4 = TILE   10 Comm = PUT ( PROC =    1)
(PID.TID 0000.0001)       NEIGHBOUR    5 = TILE   41 Comm = PUT ( PROC =    1)
(PID.TID 0000.0001)  TILE:   43
(PID.TID 0000.0001)       NEIGHBOUR    1 = TILE   45 Comm = PUT ( PROC =    1)
(PID.TID 0000.0001)       NEIGHBOUR    2 = TILE   41 Comm = PUT ( PROC =    1)
(PID.TID 0000.0001)       NEIGHBOUR    3 = TILE   44 Comm = PUT ( PROC =    1)
(PID.TID 0000.0001)       NEIGHBOUR    4 = TILE   36 Comm = PUT ( PROC =    1)
(PID.TID 0000.0001)  TILE:   44
(PID.TID 0000.0001)       NEIGHBOUR    1 = TILE   46 Comm = PUT ( PROC =    1)
(PID.TID 0000.0001)       NEIGHBOUR    2 = TILE   42 Comm = PUT ( PROC =    1)
(PID.TID 0000.0001)       NEIGHBOUR    3 = TILE   10 Comm = PUT ( PROC =    1)
(PID.TID 0000.0001)       NEIGHBOUR    4 = TILE   43 Comm = PUT ( PROC =    1)
(PID.TID 0000.0001)  TILE:   45
(PID.TID 0000.0001)       NEIGHBOUR    1 = TILE   47 Comm = PUT ( PROC =    1)
(PID.TID 0000.0001)       NEIGHBOUR    2 = TILE   43 Comm = PUT ( PROC =    1)
(PID.TID 0000.0001)       NEIGHBOUR    3 = TILE   46 Comm = PUT ( PROC =    1)
(PID.TID 0000.0001)       NEIGHBOUR    4 = TILE   38 Comm = PUT ( PROC =    1)
(PID.TID 0000.0001)  TILE:   46
(PID.TID 0000.0001)       NEIGHBOUR    1 = TILE   48 Comm = PUT ( PROC =    1)
(PID.TID 0000.0001)       NEIGHBOUR    2 = TILE   44 Comm = PUT ( PROC =    1)
(PID.TID 0000.0001)       NEIGHBOUR    3 = TILE    9 Comm = PUT ( PROC =    1)
(PID.TID 0000.0001)       NEIGHBOUR    4 = TILE   45 Comm = PUT ( PROC =    1)
(PID.TID 0000.0001)  TILE:   47
(PID.TID 0000.0001)       NEIGHBOUR    1 = TILE    1 Comm = PUT ( PROC =    1)
(PID.TID 0000.0001)       NEIGHBOUR    2 = TILE   45 Comm = PUT ( PROC =    1)
(PID.TID 0000.0001)       NEIGHBOUR    3 = TILE   48 Comm = PUT ( PROC =    1)
(PID.TID 0000.0001)       NEIGHBOUR    4 = TILE   40 Comm = PUT ( PROC =    1)
(PID.TID 0000.0001)  TILE:   48
(PID.TID 0000.0001)       NEIGHBOUR    1 = TILE    2 Comm = PUT ( PROC =    1)
(PID.TID 0000.0001)       NEIGHBOUR    2 = TILE   46 Comm = PUT ( PROC =    1)
(PID.TID 0000.0001)       NEIGHBOUR    3 = TILE    9 Comm = PUT ( PROC =    1)
(PID.TID 0000.0001)       NEIGHBOUR    4 = TILE   47 Comm = PUT ( PROC =    1)
(PID.TID 0000.0001) Tile     1 (pr=   1) sends pts i=  -1:  18, j=   7:   8
(PID.TID 0000.0001)                         to pts i=  -1:  18, j=  -1:   0 in tile      3 (pr=   1)
(PID.TID 0000.0001) Tile     1 (pr=   1) sends pts i=  -1:  18, j=   1:   2
(PID.TID 0000.0001)                         to pts i=  -1:  18, j=   9:  10 in tile     47 (pr=   1)
(PID.TID 0000.0001) Tile     1 (pr=   1) sends pts i=  15:  16, j=  -1:  10
(PID.TID 0000.0001)                         to pts i=  -1:   0, j=  -1:  10 in tile      2 (pr=   1)
(PID.TID 0000.0001) Tile     1 (pr=   1) sends pts i=   1:   2, j=  10:  -1
(PID.TID 0000.0001)                         to pts i=   7:  18, j=   9:  10 in tile     40 (pr=   1)
(PID.TID 0000.0001) Tile     2 (pr=   1) sends pts i=  -1:  18, j=   7:   8
(PID.TID 0000.0001)                         to pts i=  -1:  18, j=  -1:   0 in tile      4 (pr=   1)
(PID.TID 0000.0001) Tile     2 (pr=   1) sends pts i=  -1:  18, j=   1:   2
(PID.TID 0000.0001)                         to pts i=  -1:  18, j=   9:  10 in tile     48 (pr=   1)
(PID.TID 0000.0001) Tile     2 (pr=   1) sends pts i=  15:  16, j=  -1:  10
(PID.TID 0000.0001)                         to pts i=  -1:   0, j=  -1:  10 in tile      9 (pr=   1)
(PID.TID 0000.0001) Tile     2 (pr=   1) sends pts i=   1:   2, j=  -1:  10
(PID.TID 0000.0001)                         to pts i=  17:  18, j=  -1:  10 in tile      1 (pr=   1)
(PID.TID 0000.0001) Tile     3 (pr=   1) sends pts i=  -1:  18, j=   7:   8
(PID.TID 0000.0001)                         to pts i=  -1:  18, j=  -1:   0 in tile      5 (pr=   1)
(PID.TID 0000.0001) Tile     3 (pr=   1) sends pts i=  -1:  18, j=   1:   2
(PID.TID 0000.0001)                         to pts i=  -1:  18, j=   9:  10 in tile      1 (pr=   1)
(PID.TID 0000.0001) Tile     3 (pr=   1) sends pts i=  15:  16, j=  -1:  10
(PID.TID 0000.0001)                         to pts i=  -1:   0, j=  -1:  10 in tile      4 (pr=   1)
(PID.TID 0000.0001) Tile     3 (pr=   1) sends pts i=   1:   2, j=  10:  -1
(PID.TID 0000.0001)                         to pts i=  -1:  10, j=   9:  10 in tile     40 (pr=   1)
(PID.TID 0000.0001) Tile     4 (pr=   1) sends pts i=  -1:  18, j=   7:   8
(PID.TID 0000.0001)                         to pts i=  -1:  18, j=  -1:   0 in tile      6 (pr=   1)
(PID.TID 0000.0001) Tile     4 (pr=   1) sends pts i=  -1:  18, j=   1:   2
(PID.TID 0000.0001)                         to pts i=  -1:  18, j=   9:  10 in tile      2 (pr=   1)
(PID.TID 0000.0001) Tile     4 (pr=   1) sends pts i=  15:  16, j=  -1:  10
(PID.TID 0000.0001)                         to pts i=  -1:   0, j=  -1:  10 in tile     11 (pr=   1)
(PID.TID 0000.0001) Tile     4 (pr=   1) sends pts i=   1:   2, j=  -1:  10
(PID.TID 0000.0001)                         to pts i=  17:  18, j=  -1:  10 in tile      3 (pr=   1)
(PID.TID 0000.0001) Tile     5 (pr=   1) sends pts i=  -1:  18, j=   7:   8
(PID.TID 0000.0001)                         to pts i=  -1:  18, j=  -1:   0 in tile      7 (pr=   1)
(PID.TID 0000.0001) Tile     5 (pr=   1) sends pts i=  -1:  18, j=   1:   2
(PID.TID 0000.0001)                         to pts i=  -1:  18, j=   9:  10 in tile      3 (pr=   1)
(PID.TID 0000.0001) Tile     5 (pr=   1) sends pts i=  15:  16, j=  -1:  10
(PID.TID 0000.0001)                         to pts i=  -1:   0, j=  -1:  10 in tile      6 (pr=   1)
(PID.TID 0000.0001) Tile     5 (pr=   1) sends pts i=   1:   2, j=  10:  -1
(PID.TID 0000.0001)                         to pts i=   7:  18, j=   9:  10 in tile     39 (pr=   1)
(PID.TID 0000.0001) Tile     6 (pr=   1) sends pts i=  -1:  18, j=   7:   8
(PID.TID 0000.0001)                         to pts i=  -1:  18, j=  -1:   0 in tile      8 (pr=   1)
(PID.TID 0000.0001) Tile     6 (pr=   1) sends pts i=  -1:  18, j=   1:   2
(PID.TID 0000.0001)                         to pts i=  -1:  18, j=   9:  10 in tile      4 (pr=   1)
(PID.TID 0000.0001) Tile     6 (pr=   1) sends pts i=  15:  16, j=  -1:  10
(PID.TID 0000.0001)                         to pts i=  -1:   0, j=  -1:  10 in tile     13 (pr=   1)
(PID.TID 0000.0001) Tile     6 (pr=   1) sends pts i=   1:   2, j=  -1:  10
(PID.TID 0000.0001)                         to pts i=  17:  18, j=  -1:  10 in tile      5 (pr=   1)
(PID.TID 0000.0001) Tile     7 (pr=   1) sends pts i=  18:   7, j=   7:   8
(PID.TID 0000.0001)                         to pts i=  -1:   0, j=  -1:  10 in tile     21 (pr=   1)
(PID.TID 0000.0001) Tile     7 (pr=   1) sends pts i=  10:  -1, j=   7:   8
(PID.TID 0000.0001)                         to pts i=  -1:   0, j=  -1:  10 in tile     23 (pr=   1)
(PID.TID 0000.0001) Tile     7 (pr=   1) sends pts i=  -1:  18, j=   1:   2
(PID.TID 0000.0001)                         to pts i=  -1:  18, j=   9:  10 in tile      5 (pr=   1)
(PID.TID 0000.0001) Tile     7 (pr=   1) sends pts i=  15:  16, j=  -1:  10
(PID.TID 0000.0001)                         to pts i=  -1:   0, j=  -1:  10 in tile      8 (pr=   1)
(PID.TID 0000.0001) Tile     7 (pr=   1) sends pts i=   1:   2, j=  10:  -1
(PID.TID 0000.0001)                         to pts i=  -1:  10, j=   9:  10 in tile     39 (pr=   1)
(PID.TID 0000.0001) Tile     8 (pr=   1) sends pts i=  18:   7, j=   7:   8
(PID.TID 0000.0001)                         to pts i=  -1:   0, j=  -1:  10 in tile     17 (pr=   1)
(PID.TID 0000.0001) Tile     8 (pr=   1) sends pts i=  10:  -1, j=   7:   8
(PID.TID 0000.0001)                         to pts i=  -1:   0, j=  -1:  10 in tile     19 (pr=   1)
(PID.TID 0000.0001) Tile     8 (pr=   1) sends pts i=  -1:  18, j=   1:   2
(PID.TID 0000.0001)                         to pts i=  -1:  18, j=   9:  10 in tile      6 (pr=   1)
(PID.TID 0000.0001) Tile     8 (pr=   1) sends pts i=  15:  16, j=  -1:  10
(PID.TID 0000.0001)                         to pts i=  -1:   0, j=  -1:  10 in tile     15 (pr=   1)
(PID.TID 0000.0001) Tile     8 (pr=   1) sends pts i=   1:   2, j=  -1:  10
(PID.TID 0000.0001)                         to pts i=  17:  18, j=  -1:  10 in tile      7 (pr=   1)
(PID.TID 0000.0001) Tile     9 (pr=   1) sends pts i=  -1:  18, j=   7:   8
(PID.TID 0000.0001)                         to pts i=  -1:  18, j=  -1:   0 in tile     11 (pr=   1)
(PID.TID 0000.0001) Tile     9 (pr=   1) sends pts i=  18:   7, j=   1:   2
(PID.TID 0000.0001)                         to pts i=  17:  18, j=  -1:  10 in tile     46 (pr=   1)
(PID.TID 0000.0001) Tile     9 (pr=   1) sends pts i=  10:  -1, j=   1:   2
(PID.TID 0000.0001)                         to pts i=  17:  18, j=  -1:  10 in tile     48 (pr=   1)
(PID.TID 0000.0001) Tile     9 (pr=   1) sends pts i=  15:  16, j=  -1:  10
(PID.TID 0000.0001)                         to pts i=  -1:   0, j=  -1:  10 in tile     10 (pr=   1)
(PID.TID 0000.0001) Tile     9 (pr=   1) sends pts i=   1:   2, j=  -1:  10
(PID.TID 0000.0001)                         to pts i=  17:  18, j=  -1:  10 in tile      2 (pr=   1)
(PID.TID 0000.0001) Tile    10 (pr=   1) sends pts i=  -1:  18, j=   7:   8
(PID.TID 0000.0001)                         to pts i=  -1:  18, j=  -1:   0 in tile     12 (pr=   1)
(PID.TID 0000.0001) Tile    10 (pr=   1) sends pts i=  18:   7, j=   1:   2
(PID.TID 0000.0001)                         to pts i=  17:  18, j=  -1:  10 in tile     42 (pr=   1)
(PID.TID 0000.0001) Tile    10 (pr=   1) sends pts i=  10:  -1, j=   1:   2
(PID.TID 0000.0001)                         to pts i=  17:  18, j=  -1:  10 in tile     44 (pr=   1)
(PID.TID 0000.0001) Tile    10 (pr=   1) sends pts i=  15:  16, j=  10:  -1
(PID.TID 0000.0001)                         to pts i=   7:  18, j=  -1:   0 in tile     26 (pr=   1)
(PID.TID 0000.0001) Tile    10 (pr=   1) sends pts i=   1:   2, j=  -1:  10
(PID.TID 0000.0001)                         to pts i=  17:  18, j=  -1:  10 in tile      9 (pr=   1)
(PID.TID 0000.0001) Tile    11 (pr=   1) sends pts i=  -1:  18, j=   7:   8
(PID.TID 0000.0001)                         to pts i=  -1:  18, j=  -1:   0 in tile     13 (pr=   1)
(PID.TID 0000.0001) Tile    11 (pr=   1) sends pts i=  -1:  18, j=   1:   2
(PID.TID 0000.0001)                         to pts i=  -1:  18, j=   9:  10 in tile      9 (pr=   1)
(PID.TID 0000.0001) Tile    11 (pr=   1) sends pts i=  15:  16, j=  -1:  10
(PID.TID 0000.0001)                         to pts i=  -1:   0, j=  -1:  10 in tile     12 (pr=   1)
(PID.TID 0000.0001) Tile    11 (pr=   1) sends pts i=   1:   2, j=  -1:  10
(PID.TID 0000.0001)                         to pts i=  17:  18, j=  -1:  10 in tile      4 (pr=   1)
(PID.TID 0000.0001) Tile    12 (pr=   1) sends pts i=  -1:  18, j=   7:   8
(PID.TID 0000.0001)                         to pts i=  -1:  18, j=  -1:   0 in tile     14 (pr=   1)
(PID.TID 0000.0001) Tile    12 (pr=   1) sends pts i=  -1:  18, j=   1:   2
(PID.TID 0000.0001)                         to pts i=  -1:  18, j=   9:  10 in tile     10 (pr=   1)
(PID.TID 0000.0001) Tile    12 (pr=   1) sends pts i=  15:  16, j=  10:  -1
(PID.TID 0000.0001)                         to pts i=  -1:  10, j=  -1:   0 in tile     26 (pr=   1)
(PID.TID 0000.0001) Tile    12 (pr=   1) sends pts i=   1:   2, j=  -1:  10
(PID.TID 0000.0001)                         to pts i=  17:  18, j=  -1:  10 in tile     11 (pr=   1)
(PID.TID 0000.0001) Tile    13 (pr=   1) sends pts i=  -1:  18, j=   7:   8
(PID.TID 0000.0001)                         to pts i=  -1:  18, j=  -1:   0 in tile     15 (pr=   1)
(PID.TID 0000.0001) Tile    13 (pr=   1) sends pts i=  -1:  18, j=   1:   2
(PID.TID 0000.0001)                         to pts i=  -1:  18, j=   9:  10 in tile     11 (pr=   1)
(PID.TID 0000.0001) Tile    13 (pr=   1) sends pts i=  15:  16, j=  -1:  10
(PID.TID 0000.0001)                         to pts i=  -1:   0, j=  -1:  10 in tile     14 (pr=   1)
(PID.TID 0000.0001) Tile    13 (pr=   1) sends pts i=   1:   2, j=  -1:  10
(PID.TID 0000.0001)                         to pts i=  17:  18, j=  -1:  10 in tile      6 (pr=   1)
(PID.TID 0000.0001) Tile    14 (pr=   1) sends pts i=  -1:  18, j=   7:   8
(PID.TID 0000.0001)                         to pts i=  -1:  18, j=  -1:   0 in tile     16 (pr=   1)
(PID.TID 0000.0001) Tile    14 (pr=   1) sends pts i=  -1:  18, j=   1:   2
(PID.TID 0000.0001)                         to pts i=  -1:  18, j=   9:  10 in tile     12 (pr=   1)
(PID.TID 0000.0001) Tile    14 (pr=   1) sends pts i=  15:  16, j=  10:  -1
(PID.TID 0000.0001)                         to pts i=   7:  18, j=  -1:   0 in tile     25 (pr=   1)
(PID.TID 0000.0001) Tile    14 (pr=   1) sends pts i=   1:   2, j=  -1:  10
(PID.TID 0000.0001)                         to pts i=  17:  18, j=  -1:  10 in tile     13 (pr=   1)
(PID.TID 0000.0001) Tile    15 (pr=   1) sends pts i=  -1:  18, j=   7:   8
(PID.TID 0000.0001)                         to pts i=  -1:  18, j=  -1:   0 in tile     17 (pr=   1)
(PID.TID 0000.0001) Tile    15 (pr=   1) sends pts i=  -1:  18, j=   1:   2
(PID.TID 0000.0001)                         to pts i=  -1:  18, j=   9:  10 in tile     13 (pr=   1)
(PID.TID 0000.0001) Tile    15 (pr=   1) sends pts i=  15:  16, j=  -1:  10
(PID.TID 0000.0001)                         to pts i=  -1:   0, j=  -1:  10 in tile     16 (pr=   1)
(PID.TID 0000.0001) Tile    15 (pr=   1) sends pts i=   1:   2, j=  -1:  10
(PID.TID 0000.0001)                         to pts i=  17:  18, j=  -1:  10 in tile      8 (pr=   1)
(PID.TID 0000.0001) Tile    16 (pr=   1) sends pts i=  -1:  18, j=   7:   8
(PID.TID 0000.0001)                         to pts i=  -1:  18, j=  -1:   0 in tile     18 (pr=   1)
(PID.TID 0000.0001) Tile    16 (pr=   1) sends pts i=  -1:  18, j=   1:   2
(PID.TID 0000.0001)                         to pts i=  -1:  18, j=   9:  10 in tile     14 (pr=   1)
(PID.TID 0000.0001) Tile    16 (pr=   1) sends pts i=  15:  16, j=  10:  -1
(PID.TID 0000.0001)                         to pts i=  -1:  10, j=  -1:   0 in tile     25 (pr=   1)
(PID.TID 0000.0001) Tile    16 (pr=   1) sends pts i=   1:   2, j=  -1:  10
(PID.TID 0000.0001)                         to pts i=  17:  18, j=  -1:  10 in tile     15 (pr=   1)
(PID.TID 0000.0001) Tile    17 (pr=   1) sends pts i=  -1:  18, j=   7:   8
(PID.TID 0000.0001)                         to pts i=  -1:  18, j=  -1:   0 in tile     19 (pr=   1)
(PID.TID 0000.0001) Tile    17 (pr=   1) sends pts i=  -1:  18, j=   1:   2
(PID.TID 0000.0001)                         to pts i=  -1:  18, j=   9:  10 in tile     15 (pr=   1)
(PID.TID 0000.0001) Tile    17 (pr=   1) sends pts i=  15:  16, j=  -1:  10
(PID.TID 0000.0001)                         to pts i=  -1:   0, j=  -1:  10 in tile     18 (pr=   1)
(PID.TID 0000.0001) Tile    17 (pr=   1) sends pts i=   1:   2, j=  10:  -1
(PID.TID 0000.0001)                         to pts i=   7:  18, j=   9:  10 in tile      8 (pr=   1)
(PID.TID 0000.0001) Tile    18 (pr=   1) sends pts i=  -1:  18, j=   7:   8
(PID.TID 0000.0001)                         to pts i=  -1:  18, j=  -1:   0 in tile     20 (pr=   1)
(PID.TID 0000.0001) Tile    18 (pr=   1) sends pts i=  -1:  18, j=   1:   2
(PID.TID 0000.0001)                         to pts i=  -1:  18, j=   9:  10 in tile     16 (pr=   1)
(PID.TID 0000.0001) Tile    18 (pr=   1) sends pts i=  15:  16, j=  -1:  10
(PID.TID 0000.0001)                         to pts i=  -1:   0, j=  -1:  10 in tile     25 (pr=   1)
(PID.TID 0000.0001) Tile    18 (pr=   1) sends pts i=   1:   2, j=  -1:  10
(PID.TID 0000.0001)                         to pts i=  17:  18, j=  -1:  10 in tile     17 (pr=   1)
(PID.TID 0000.0001) Tile    19 (pr=   1) sends pts i=  -1:  18, j=   7:   8
(PID.TID 0000.0001)                         to pts i=  -1:  18, j=  -1:   0 in tile     21 (pr=   1)
(PID.TID 0000.0001) Tile    19 (pr=   1) sends pts i=  -1:  18, j=   1:   2
(PID.TID 0000.0001)                         to pts i=  -1:  18, j=   9:  10 in tile     17 (pr=   1)
(PID.TID 0000.0001) Tile    19 (pr=   1) sends pts i=  15:  16, j=  -1:  10
(PID.TID 0000.0001)                         to pts i=  -1:   0, j=  -1:  10 in tile     20 (pr=   1)
(PID.TID 0000.0001) Tile    19 (pr=   1) sends pts i=   1:   2, j=  10:  -1
(PID.TID 0000.0001)                         to pts i=  -1:  10, j=   9:  10 in tile      8 (pr=   1)
(PID.TID 0000.0001) Tile    20 (pr=   1) sends pts i=  -1:  18, j=   7:   8
(PID.TID 0000.0001)                         to pts i=  -1:  18, j=  -1:   0 in tile     22 (pr=   1)
(PID.TID 0000.0001) Tile    20 (pr=   1) sends pts i=  -1:  18, j=   1:   2
(PID.TID 0000.0001)                         to pts i=  -1:  18, j=   9:  10 in tile     18 (pr=   1)
(PID.TID 0000.0001) Tile    20 (pr=   1) sends pts i=  15:  16, j=  -1:  10
(PID.TID 0000.0001)                         to pts i=  -1:   0, j=  -1:  10 in tile     27 (pr=   1)
(PID.TID 0000.0001) Tile    20 (pr=   1) sends pts i=   1:   2, j=  -1:  10
(PID.TID 0000.0001)                         to pts i=  17:  18, j=  -1:  10 in tile     19 (pr=   1)
(PID.TID 0000.0001) Tile    21 (pr=   1) sends pts i=  -1:  18, j=   7:   8
(PID.TID 0000.0001)                         to pts i=  -1:  18, j=  -1:   0 in tile     23 (pr=   1)
(PID.TID 0000.0001) Tile    21 (pr=   1) sends pts i=  -1:  18, j=   1:   2
(PID.TID 0000.0001)                         to pts i=  -1:  18, j=   9:  10 in tile     19 (pr=   1)
(PID.TID 0000.0001) Tile    21 (pr=   1) sends pts i=  15:  16, j=  -1:  10
(PID.TID 0000.0001)                         to pts i=  -1:   0, j=  -1:  10 in tile     22 (pr=   1)
(PID.TID 0000.0001) Tile    21 (pr=   1) sends pts i=   1:   2, j=  10:  -1
(PID.TID 0000.0001)                         to pts i=   7:  18, j=   9:  10 in tile      7 (pr=   1)
(PID.TID 0000.0001) Tile    22 (pr=   1) sends pts i=  -1:  18, j=   7:   8
(PID.TID 0000.0001)                         to pts i=  -1:  18, j=  -1:   0 in tile     24 (pr=   1)
(PID.TID 0000.0001) Tile    22 (pr=   1) sends pts i=  -1:  18, j=   1:   2
(PID.TID 0000.0001)                         to pts i=  -1:  18, j=   9:  10 in tile     20 (pr=   1)
(PID.TID 0000.0001) Tile    22 (pr=   1) sends pts i=  15:  16, j=  -1:  10
(PID.TID 0000.0001)                         to pts i=  -1:   0, j=  -1:  10 in tile     29 (pr=   1)
(PID.TID 0000.0001) Tile    22 (pr=   1) sends pts i=   1:   2, j=  -1:  10
(PID.TID 0000.0001)                         to pts i=  17:  18, j=  -1:  10 in tile     21 (pr=   1)
(PID.TID 0000.0001) Tile    23 (pr=   1) sends pts i=  18:   7, j=   7:   8
(PID.TID 0000.0001)                         to pts i=  -1:   0, j=  -1:  10 in tile     37 (pr=   1)
(PID.TID 0000.0001) Tile    23 (pr=   1) sends pts i=  10:  -1, j=   7:   8
(PID.TID 0000.0001)                         to pts i=  -1:   0, j=  -1:  10 in tile     39 (pr=   1)
(PID.TID 0000.0001) Tile    23 (pr=   1) sends pts i=  -1:  18, j=   1:   2
(PID.TID 0000.0001)                         to pts i=  -1:  18, j=   9:  10 in tile     21 (pr=   1)
(PID.TID 0000.0001) Tile    23 (pr=   1) sends pts i=  15:  16, j=  -1:  10
(PID.TID 0000.0001)                         to pts i=  -1:   0, j=  -1:  10 in tile     24 (pr=   1)
(PID.TID 0000.0001) Tile    23 (pr=   1) sends pts i=   1:   2, j=  10:  -1
(PID.TID 0000.0001)                         to pts i=  -1:  10, j=   9:  10 in tile      7 (pr=   1)
(PID.TID 0000.0001) Tile    24 (pr=   1) sends pts i=  18:   7, j=   7:   8
(PID.TID 0000.0001)                         to pts i=  -1:   0, j=  -1:  10 in tile     33 (pr=   1)
(PID.TID 0000.0001) Tile    24 (pr=   1) sends pts i=  10:  -1, j=   7:   8
(PID.TID 0000.0001)                         to pts i=  -1:   0, j=  -1:  10 in tile     35 (pr=   1)
(PID.TID 0000.0001) Tile    24 (pr=   1) sends pts i=  -1:  18, j=   1:   2
(PID.TID 0000.0001)                         to pts i=  -1:  18, j=   9:  10 in tile     22 (pr=   1)
(PID.TID 0000.0001) Tile    24 (pr=   1) sends pts i=  15:  16, j=  -1:  10
(PID.TID 0000.0001)                         to pts i=  -1:   0, j=  -1:  10 in tile     31 (pr=   1)
(PID.TID 0000.0001) Tile    24 (pr=   1) sends pts i=   1:   2, j=  -1:  10
(PID.TID 0000.0001)                         to pts i=  17:  18, j=  -1:  10 in tile     23 (pr=   1)
(PID.TID 0000.0001) Tile    25 (pr=   1) sends pts i=  -1:  18, j=   7:   8
(PID.TID 0000.0001)                         to pts i=  -1:  18, j=  -1:   0 in tile     27 (pr=   1)
(PID.TID 0000.0001) Tile    25 (pr=   1) sends pts i=  18:   7, j=   1:   2
(PID.TID 0000.0001)                         to pts i=  17:  18, j=  -1:  10 in tile     14 (pr=   1)
(PID.TID 0000.0001) Tile    25 (pr=   1) sends pts i=  10:  -1, j=   1:   2
(PID.TID 0000.0001)                         to pts i=  17:  18, j=  -1:  10 in tile     16 (pr=   1)
(PID.TID 0000.0001) Tile    25 (pr=   1) sends pts i=  15:  16, j=  -1:  10
(PID.TID 0000.0001)                         to pts i=  -1:   0, j=  -1:  10 in tile     26 (pr=   1)
(PID.TID 0000.0001) Tile    25 (pr=   1) sends pts i=   1:   2, j=  -1:  10
(PID.TID 0000.0001)                         to pts i=  17:  18, j=  -1:  10 in tile     18 (pr=   1)
(PID.TID 0000.0001) Tile    26 (pr=   1) sends pts i=  -1:  18, j=   7:   8
(PID.TID 0000.0001)                         to pts i=  -1:  18, j=  -1:   0 in tile     28 (pr=   1)
(PID.TID 0000.0001) Tile    26 (pr=   1) sends pts i=  18:   7, j=   1:   2
(PID.TID 0000.0001)                         to pts i=  17:  18, j=  -1:  10 in tile     10 (pr=   1)
(PID.TID 0000.0001) Tile    26 (pr=   1) sends pts i=  10:  -1, j=   1:   2
(PID.TID 0000.0001)                         to pts i=  17:  18, j=  -1:  10 in tile     12 (pr=   1)
(PID.TID 0000.0001) Tile    26 (pr=   1) sends pts i=  15:  16, j=  10:  -1
(PID.TID 0000.0001)                         to pts i=   7:  18, j=  -1:   0 in tile     42 (pr=   1)
(PID.TID 0000.0001) Tile    26 (pr=   1) sends pts i=   1:   2, j=  -1:  10
(PID.TID 0000.0001)                         to pts i=  17:  18, j=  -1:  10 in tile     25 (pr=   1)
(PID.TID 0000.0001) Tile    27 (pr=   1) sends pts i=  -1:  18, j=   7:   8
(PID.TID 0000.0001)                         to pts i=  -1:  18, j=  -1:   0 in tile     29 (pr=   1)
(PID.TID 0000.0001) Tile    27 (pr=   1) sends pts i=  -1:  18, j=   1:   2
(PID.TID 0000.0001)                         to pts i=  -1:  18, j=   9:  10 in tile     25 (pr=   1)
(PID.TID 0000.0001) Tile    27 (pr=   1) sends pts i=  15:  16, j=  -1:  10
(PID.TID 0000.0001)                         to pts i=  -1:   0, j=  -1:  10 in tile     28 (pr=   1)
(PID.TID 0000.0001) Tile    27 (pr=   1) sends pts i=   1:   2, j=  -1:  10
(PID.TID 0000.0001)                         to pts i=  17:  18, j=  -1:  10 in tile     20 (pr=   1)
(PID.TID 0000.0001) Tile    28 (pr=   1) sends pts i=  -1:  18, j=   7:   8
(PID.TID 0000.0001)                         to pts i=  -1:  18, j=  -1:   0 in tile     30 (pr=   1)
(PID.TID 0000.0001) Tile    28 (pr=   1) sends pts i=  -1:  18, j=   1:   2
(PID.TID 0000.0001)                         to pts i=  -1:  18, j=   9:  10 in tile     26 (pr=   1)
(PID.TID 0000.0001) Tile    28 (pr=   1) sends pts i=  15:  16, j=  10:  -1
(PID.TID 0000.0001)                         to pts i=  -1:  10, j=  -1:   0 in tile     42 (pr=   1)
(PID.TID 0000.0001) Tile    28 (pr=   1) sends pts i=   1:   2, j=  -1:  10
(PID.TID 0000.0001)                         to pts i=  17:  18, j=  -1:  10 in tile     27 (pr=   1)
(PID.TID 0000.0001) Tile    29 (pr=   1) sends pts i=  -1:  18, j=   7:   8
(PID.TID 0000.0001)                         to pts i=  -1:  18, j=  -1:   0 in tile     31 (pr=   1)
(PID.TID 0000.0001) Tile    29 (pr=   1) sends pts i=  -1:  18, j=   1:   2
(PID.TID 0000.0001)                         to pts i=  -1:  18, j=   9:  10 in tile     27 (pr=   1)
(PID.TID 0000.0001) Tile    29 (pr=   1) sends pts i=  15:  16, j=  -1:  10
(PID.TID 0000.0001)                         to pts i=  -1:   0, j=  -1:  10 in tile     30 (pr=   1)
(PID.TID 0000.0001) Tile    29 (pr=   1) sends pts i=   1:   2, j=  -1:  10
(PID.TID 0000.0001)                         to pts i=  17:  18, j=  -1:  10 in tile     22 (pr=   1)
(PID.TID 0000.0001) Tile    30 (pr=   1) sends pts i=  -1:  18, j=   7:   8
(PID.TID 0000.0001)                         to pts i=  -1:  18, j=  -1:   0 in tile     32 (pr=   1)
(PID.TID 0000.0001) Tile    30 (pr=   1) sends pts i=  -1:  18, j=   1:   2
(PID.TID 0000.0001)                         to pts i=  -1:  18, j=   9:  10 in tile     28 (pr=   1)
(PID.TID 0000.0001) Tile    30 (pr=   1) sends pts i=  15:  16, j=  10:  -1
(PID.TID 0000.0001)                         to pts i=   7:  18, j=  -1:   0 in tile     41 (pr=   1)
(PID.TID 0000.0001) Tile    30 (pr=   1) sends pts i=   1:   2, j=  -1:  10
(PID.TID 0000.0001)                         to pts i=  17:  18, j=  -1:  10 in tile     29 (pr=   1)
(PID.TID 0000.0001) Tile    31 (pr=   1) sends pts i=  -1:  18, j=   7:   8
(PID.TID 0000.0001)                         to pts i=  -1:  18, j=  -1:   0 in tile     33 (pr=   1)
(PID.TID 0000.0001) Tile    31 (pr=   1) sends pts i=  -1:  18, j=   1:   2
(PID.TID 0000.0001)                         to pts i=  -1:  18, j=   9:  10 in tile     29 (pr=   1)
(PID.TID 0000.0001) Tile    31 (pr=   1) sends pts i=  15:  16, j=  -1:  10
(PID.TID 0000.0001)                         to pts i=  -1:   0, j=  -1:  10 in tile     32 (pr=   1)
(PID.TID 0000.0001) Tile    31 (pr=   1) sends pts i=   1:   2, j=  -1:  10
(PID.TID 0000.0001)                         to pts i=  17:  18, j=  -1:  10 in tile     24 (pr=   1)
(PID.TID 0000.0001) Tile    32 (pr=   1) sends pts i=  -1:  18, j=   7:   8
(PID.TID 0000.0001)                         to pts i=  -1:  18, j=  -1:   0 in tile     34 (pr=   1)
(PID.TID 0000.0001) Tile    32 (pr=   1) sends pts i=  -1:  18, j=   1:   2
(PID.TID 0000.0001)                         to pts i=  -1:  18, j=   9:  10 in tile     30 (pr=   1)
(PID.TID 0000.0001) Tile    32 (pr=   1) sends pts i=  15:  16, j=  10:  -1
(PID.TID 0000.0001)                         to pts i=  -1:  10, j=  -1:   0 in tile     41 (pr=   1)
(PID.TID 0000.0001) Tile    32 (pr=   1) sends pts i=   1:   2, j=  -1:  10
(PID.TID 0000.0001)                         to pts i=  17:  18, j=  -1:  10 in tile     31 (pr=   1)
(PID.TID 0000.0001) Tile    33 (pr=   1) sends pts i=  -1:  18, j=   7:   8
(PID.TID 0000.0001)                         to pts i=  -1:  18, j=  -1:   0 in tile     35 (pr=   1)
(PID.TID 0000.0001) Tile    33 (pr=   1) sends pts i=  -1:  18, j=   1:   2
(PID.TID 0000.0001)                         to pts i=  -1:  18, j=   9:  10 in tile     31 (pr=   1)
(PID.TID 0000.0001) Tile    33 (pr=   1) sends pts i=  15:  16, j=  -1:  10
(PID.TID 0000.0001)                         to pts i=  -1:   0, j=  -1:  10 in tile     34 (pr=   1)
(PID.TID 0000.0001) Tile    33 (pr=   1) sends pts i=   1:   2, j=  10:  -1
(PID.TID 0000.0001)                         to pts i=   7:  18, j=   9:  10 in tile     24 (pr=   1)
(PID.TID 0000.0001) Tile    34 (pr=   1) sends pts i=  -1:  18, j=   7:   8
(PID.TID 0000.0001)                         to pts i=  -1:  18, j=  -1:   0 in tile     36 (pr=   1)
(PID.TID 0000.0001) Tile    34 (pr=   1) sends pts i=  -1:  18, j=   1:   2
(PID.TID 0000.0001)                         to pts i=  -1:  18, j=   9:  10 in tile     32 (pr=   1)
(PID.TID 0000.0001) Tile    34 (pr=   1) sends pts i=  15:  16, j=  -1:  10
(PID.TID 0000.0001)                         to pts i=  -1:   0, j=  -1:  10 in tile     41 (pr=   1)
(PID.TID 0000.0001) Tile    34 (pr=   1) sends pts i=   1:   2, j=  -1:  10
(PID.TID 0000.0001)                         to pts i=  17:  18, j=  -1:  10 in tile     33 (pr=   1)
(PID.TID 0000.0001) Tile    35 (pr=   1) sends pts i=  -1:  18, j=   7:   8
(PID.TID 0000.0001)                         to pts i=  -1:  18, j=  -1:   0 in tile     37 (pr=   1)
(PID.TID 0000.0001) Tile    35 (pr=   1) sends pts i=  -1:  18, j=   1:   2
(PID.TID 0000.0001)                         to pts i=  -1:  18, j=   9:  10 in tile     33 (pr=   1)
(PID.TID 0000.0001) Tile    35 (pr=   1) sends pts i=  15:  16, j=  -1:  10
(PID.TID 0000.0001)                         to pts i=  -1:   0, j=  -1:  10 in tile     36 (pr=   1)
(PID.TID 0000.0001) Tile    35 (pr=   1) sends pts i=   1:   2, j=  10:  -1
(PID.TID 0000.0001)                         to pts i=  -1:  10, j=   9:  10 in tile     24 (pr=   1)
(PID.TID 0000.0001) Tile    36 (pr=   1) sends pts i=  -1:  18, j=   7:   8
(PID.TID 0000.0001)                         to pts i=  -1:  18, j=  -1:   0 in tile     38 (pr=   1)
(PID.TID 0000.0001) Tile    36 (pr=   1) sends pts i=  -1:  18, j=   1:   2
(PID.TID 0000.0001)                         to pts i=  -1:  18, j=   9:  10 in tile     34 (pr=   1)
(PID.TID 0000.0001) Tile    36 (pr=   1) sends pts i=  15:  16, j=  -1:  10
(PID.TID 0000.0001)                         to pts i=  -1:   0, j=  -1:  10 in tile     43 (pr=   1)
(PID.TID 0000.0001) Tile    36 (pr=   1) sends pts i=   1:   2, j=  -1:  10
(PID.TID 0000.0001)                         to pts i=  17:  18, j=  -1:  10 in tile     35 (pr=   1)
(PID.TID 0000.0001) Tile    37 (pr=   1) sends pts i=  -1:  18, j=   7:   8
(PID.TID 0000.0001)                         to pts i=  -1:  18, j=  -1:   0 in tile     39 (pr=   1)
(PID.TID 0000.0001) Tile    37 (pr=   1) sends pts i=  -1:  18, j=   1:   2
(PID.TID 0000.0001)                         to pts i=  -1:  18, j=   9:  10 in tile     35 (pr=   1)
(PID.TID 0000.0001) Tile    37 (pr=   1) sends pts i=  15:  16, j=  -1:  10
(PID.TID 0000.0001)                         to pts i=  -1:   0, j=  -1:  10 in tile     38 (pr=   1)
(PID.TID 0000.0001) Tile    37 (pr=   1) sends pts i=   1:   2, j=  10:  -1
(PID.TID 0000.0001)                         to pts i=   7:  18, j=   9:  10 in tile     23 (pr=   1)
(PID.TID 0000.0001) Tile    38 (pr=   1) sends pts i=  -1:  18, j=   7:   8
(PID.TID 0000.0001)                         to pts i=  -1:  18, j=  -1:   0 in tile     40 (pr=   1)
(PID.TID 0000.0001) Tile    38 (pr=   1) sends pts i=  -1:  18, j=   1:   2
(PID.TID 0000.0001)                         to pts i=  -1:  18, j=   9:  10 in tile     36 (pr=   1)
(PID.TID 0000.0001) Tile    38 (pr=   1) sends pts i=  15:  16, j=  -1:  10
(PID.TID 0000.0001)                         to pts i=  -1:   0, j=  -1:  10 in tile     45 (pr=   1)
(PID.TID 0000.0001) Tile    38 (pr=   1) sends pts i=   1:   2, j=  -1:  10
(PID.TID 0000.0001)                         to pts i=  17:  18, j=  -1:  10 in tile     37 (pr=   1)
(PID.TID 0000.0001) Tile    39 (pr=   1) sends pts i=  18:   7, j=   7:   8
(PID.TID 0000.0001)                         to pts i=  -1:   0, j=  -1:  10 in tile      5 (pr=   1)
(PID.TID 0000.0001) Tile    39 (pr=   1) sends pts i=  10:  -1, j=   7:   8
(PID.TID 0000.0001)                         to pts i=  -1:   0, j=  -1:  10 in tile      7 (pr=   1)
(PID.TID 0000.0001) Tile    39 (pr=   1) sends pts i=  -1:  18, j=   1:   2
(PID.TID 0000.0001)                         to pts i=  -1:  18, j=   9:  10 in tile     37 (pr=   1)
(PID.TID 0000.0001) Tile    39 (pr=   1) sends pts i=  15:  16, j=  -1:  10
(PID.TID 0000.0001)                         to pts i=  -1:   0, j=  -1:  10 in tile     40 (pr=   1)
(PID.TID 0000.0001) Tile    39 (pr=   1) sends pts i=   1:   2, j=  10:  -1
(PID.TID 0000.0001)                         to pts i=  -1:  10, j=   9:  10 in tile     23 (pr=   1)
(PID.TID 0000.0001) Tile    40 (pr=   1) sends pts i=  18:   7, j=   7:   8
(PID.TID 0000.0001)                         to pts i=  -1:   0, j=  -1:  10 in tile      1 (pr=   1)
(PID.TID 0000.0001) Tile    40 (pr=   1) sends pts i=  10:  -1, j=   7:   8
(PID.TID 0000.0001)                         to pts i=  -1:   0, j=  -1:  10 in tile      3 (pr=   1)
(PID.TID 0000.0001) Tile    40 (pr=   1) sends pts i=  -1:  18, j=   1:   2
(PID.TID 0000.0001)                         to pts i=  -1:  18, j=   9:  10 in tile     38 (pr=   1)
(PID.TID 0000.0001) Tile    40 (pr=   1) sends pts i=  15:  16, j=  -1:  10
(PID.TID 0000.0001)                         to pts i=  -1:   0, j=  -1:  10 in tile     47 (pr=   1)
(PID.TID 0000.0001) Tile    40 (pr=   1) sends pts i=   1:   2, j=  -1:  10
(PID.TID 0000.0001)                         to pts i=  17:  18, j=  -1:  10 in tile     39 (pr=   1)
(PID.TID 0000.0001) Tile    41 (pr=   1) sends pts i=  -1:  18, j=   7:   8
(PID.TID 0000.0001)                         to pts i=  -1:  18, j=  -1:   0 in tile     43 (pr=   1)
(PID.TID 0000.0001) Tile    41 (pr=   1) sends pts i=  18:   7, j=   1:   2
(PID.TID 0000.0001)                         to pts i=  17:  18, j=  -1:  10 in tile     30 (pr=   1)
(PID.TID 0000.0001) Tile    41 (pr=   1) sends pts i=  10:  -1, j=   1:   2
(PID.TID 0000.0001)                         to pts i=  17:  18, j=  -1:  10 in tile     32 (pr=   1)
(PID.TID 0000.0001) Tile    41 (pr=   1) sends pts i=  15:  16, j=  -1:  10
(PID.TID 0000.0001)                         to pts i=  -1:   0, j=  -1:  10 in tile     42 (pr=   1)
(PID.TID 0000.0001) Tile    41 (pr=   1) sends pts i=   1:   2, j=  -1:  10
(PID.TID 0000.0001)                         to pts i=  17:  18, j=  -1:  10 in tile     34 (pr=   1)
(PID.TID 0000.0001) Tile    42 (pr=   1) sends pts i=  -1:  18, j=   7:   8
(PID.TID 0000.0001)                         to pts i=  -1:  18, j=  -1:   0 in tile     44 (pr=   1)
(PID.TID 0000.0001) Tile    42 (pr=   1) sends pts i=  18:   7, j=   1:   2
(PID.TID 0000.0001)                         to pts i=  17:  18, j=  -1:  10 in tile     26 (pr=   1)
(PID.TID 0000.0001) Tile    42 (pr=   1) sends pts i=  10:  -1, j=   1:   2
(PID.TID 0000.0001)                         to pts i=  17:  18, j=  -1:  10 in tile     28 (pr=   1)
(PID.TID 0000.0001) Tile    42 (pr=   1) sends pts i=  15:  16, j=  10:  -1
(PID.TID 0000.0001)                         to pts i=   7:  18, j=  -1:   0 in tile     10 (pr=   1)
(PID.TID 0000.0001) Tile    42 (pr=   1) sends pts i=   1:   2, j=  -1:  10
(PID.TID 0000.0001)                         to pts i=  17:  18, j=  -1:  10 in tile     41 (pr=   1)
(PID.TID 0000.0001) Tile    43 (pr=   1) sends pts i=  -1:  18, j=   7:   8
(PID.TID 0000.0001)                         to pts i=  -1:  18, j=  -1:   0 in tile     45 (pr=   1)
(PID.TID 0000.0001) Tile    43 (pr=   1) sends pts i=  -1:  18, j=   1:   2
(PID.TID 0000.0001)                         to pts i=  -1:  18, j=   9:  10 in tile     41 (pr=   1)
(PID.TID 0000.0001) Tile    43 (pr=   1) sends pts i=  15:  16, j=  -1:  10
(PID.TID 0000.0001)                         to pts i=  -1:   0, j=  -1:  10 in tile     44 (pr=   1)
(PID.TID 0000.0001) Tile    43 (pr=   1) sends pts i=   1:   2, j=  -1:  10
(PID.TID 0000.0001)                         to pts i=  17:  18, j=  -1:  10 in tile     36 (pr=   1)
(PID.TID 0000.0001) Tile    44 (pr=   1) sends pts i=  -1:  18, j=   7:   8
(PID.TID 0000.0001)                         to pts i=  -1:  18, j=  -1:   0 in tile     46 (pr=   1)
(PID.TID 0000.0001) Tile    44 (pr=   1) sends pts i=  -1:  18, j=   1:   2
(PID.TID 0000.0001)                         to pts i=  -1:  18, j=   9:  10 in tile     42 (pr=   1)
(PID.TID 0000.0001) Tile    44 (pr=   1) sends pts i=  15:  16, j=  10:  -1
(PID.TID 0000.0001)                         to pts i=  -1:  10, j=  -1:   0 in tile     10 (pr=   1)
(PID.TID 0000.0001) Tile    44 (pr=   1) sends pts i=   1:   2, j=  -1:  10
(PID.TID 0000.0001)                         to pts i=  17:  18, j=  -1:  10 in tile     43 (pr=   1)
(PID.TID 0000.0001) Tile    45 (pr=   1) sends pts i=  -1:  18, j=   7:   8
(PID.TID 0000.0001)                         to pts i=  -1:  18, j=  -1:   0 in tile     47 (pr=   1)
(PID.TID 0000.0001) Tile    45 (pr=   1) sends pts i=  -1:  18, j=   1:   2
(PID.TID 0000.0001)                         to pts i=  -1:  18, j=   9:  10 in tile     43 (pr=   1)
(PID.TID 0000.0001) Tile    45 (pr=   1) sends pts i=  15:  16, j=  -1:  10
(PID.TID 0000.0001)                         to pts i=  -1:   0, j=  -1:  10 in tile     46 (pr=   1)
(PID.TID 0000.0001) Tile    45 (pr=   1) sends pts i=   1:   2, j=  -1:  10
(PID.TID 0000.0001)                         to pts i=  17:  18, j=  -1:  10 in tile     38 (pr=   1)
(PID.TID 0000.0001) Tile    46 (pr=   1) sends pts i=  -1:  18, j=   7:   8
(PID.TID 0000.0001)                         to pts i=  -1:  18, j=  -1:   0 in tile     48 (pr=   1)
(PID.TID 0000.0001) Tile    46 (pr=   1) sends pts i=  -1:  18, j=   1:   2
(PID.TID 0000.0001)                         to pts i=  -1:  18, j=   9:  10 in tile     44 (pr=   1)
(PID.TID 0000.0001) Tile    46 (pr=   1) sends pts i=  15:  16, j=  10:  -1
(PID.TID 0000.0001)                         to pts i=   7:  18, j=  -1:   0 in tile      9 (pr=   1)
(PID.TID 0000.0001) Tile    46 (pr=   1) sends pts i=   1:   2, j=  -1:  10
(PID.TID 0000.0001)                         to pts i=  17:  18, j=  -1:  10 in tile     45 (pr=   1)
(PID.TID 0000.0001) Tile    47 (pr=   1) sends pts i=  -1:  18, j=   7:   8
(PID.TID 0000.0001)                         to pts i=  -1:  18, j=  -1:   0 in tile      1 (pr=   1)
(PID.TID 0000.0001) Tile    47 (pr=   1) sends pts i=  -1:  18, j=   1:   2
(PID.TID 0000.0001)                         to pts i=  -1:  18, j=   9:  10 in tile     45 (pr=   1)
(PID.TID 0000.0001) Tile    47 (pr=   1) sends pts i=  15:  16, j=  -1:  10
(PID.TID 0000.0001)                         to pts i=  -1:   0, j=  -1:  10 in tile     48 (pr=   1)
(PID.TID 0000.0001) Tile    47 (pr=   1) sends pts i=   1:   2, j=  -1:  10
(PID.TID 0000.0001)                         to pts i=  17:  18, j=  -1:  10 in tile     40 (pr=   1)
(PID.TID 0000.0001) Tile    48 (pr=   1) sends pts i=  -1:  18, j=   7:   8
(PID.TID 0000.0001)                         to pts i=  -1:  18, j=  -1:   0 in tile      2 (pr=   1)
(PID.TID 0000.0001) Tile    48 (pr=   1) sends pts i=  -1:  18, j=   1:   2
(PID.TID 0000.0001)                         to pts i=  -1:  18, j=   9:  10 in tile     46 (pr=   1)
(PID.TID 0000.0001) Tile    48 (pr=   1) sends pts i=  15:  16, j=  10:  -1
(PID.TID 0000.0001)                         to pts i=  -1:  10, j=  -1:   0 in tile      9 (pr=   1)
(PID.TID 0000.0001) Tile    48 (pr=   1) sends pts i=   1:   2, j=  -1:  10
(PID.TID 0000.0001)                         to pts i=  17:  18, j=  -1:  10 in tile     47 (pr=   1)
(PID.TID 0000.0001) Tile     1 (pr=   1) recv pts i=  -1:  18, j=   9:  10 from tile     3 (pr=   1)
(PID.TID 0000.0001) Tile     1 (pr=   1) recv pts i=  -1:  18, j=  -1:   0 from tile    47 (pr=   1)
(PID.TID 0000.0001) Tile     1 (pr=   1) recv pts i=  17:  18, j=  -1:  10 from tile     2 (pr=   1)
(PID.TID 0000.0001) Tile     1 (pr=   1) recv pts i=  -1:   0, j=  -1:  10 from tile    40 (pr=   1)
(PID.TID 0000.0001) Tile     2 (pr=   1) recv pts i=  -1:  18, j=   9:  10 from tile     4 (pr=   1)
(PID.TID 0000.0001) Tile     2 (pr=   1) recv pts i=  -1:  18, j=  -1:   0 from tile    48 (pr=   1)
(PID.TID 0000.0001) Tile     2 (pr=   1) recv pts i=  17:  18, j=  -1:  10 from tile     9 (pr=   1)
(PID.TID 0000.0001) Tile     2 (pr=   1) recv pts i=  -1:   0, j=  -1:  10 from tile     1 (pr=   1)
(PID.TID 0000.0001) Tile     3 (pr=   1) recv pts i=  -1:  18, j=   9:  10 from tile     5 (pr=   1)
(PID.TID 0000.0001) Tile     3 (pr=   1) recv pts i=  -1:  18, j=  -1:   0 from tile     1 (pr=   1)
(PID.TID 0000.0001) Tile     3 (pr=   1) recv pts i=  17:  18, j=  -1:  10 from tile     4 (pr=   1)
(PID.TID 0000.0001) Tile     3 (pr=   1) recv pts i=  -1:   0, j=  -1:  10 from tile    40 (pr=   1)
(PID.TID 0000.0001) Tile     4 (pr=   1) recv pts i=  -1:  18, j=   9:  10 from tile     6 (pr=   1)
(PID.TID 0000.0001) Tile     4 (pr=   1) recv pts i=  -1:  18, j=  -1:   0 from tile     2 (pr=   1)
(PID.TID 0000.0001) Tile     4 (pr=   1) recv pts i=  17:  18, j=  -1:  10 from tile    11 (pr=   1)
(PID.TID 0000.0001) Tile     4 (pr=   1) recv pts i=  -1:   0, j=  -1:  10 from tile     3 (pr=   1)
(PID.TID 0000.0001) Tile     5 (pr=   1) recv pts i=  -1:  18, j=   9:  10 from tile     7 (pr=   1)
(PID.TID 0000.0001) Tile     5 (pr=   1) recv pts i=  -1:  18, j=  -1:   0 from tile     3 (pr=   1)
(PID.TID 0000.0001) Tile     5 (pr=   1) recv pts i=  17:  18, j=  -1:  10 from tile     6 (pr=   1)
(PID.TID 0000.0001) Tile     5 (pr=   1) recv pts i=  -1:   0, j=  -1:  10 from tile    39 (pr=   1)
(PID.TID 0000.0001) Tile     6 (pr=   1) recv pts i=  -1:  18, j=   9:  10 from tile     8 (pr=   1)
(PID.TID 0000.0001) Tile     6 (pr=   1) recv pts i=  -1:  18, j=  -1:   0 from tile     4 (pr=   1)
(PID.TID 0000.0001) Tile     6 (pr=   1) recv pts i=  17:  18, j=  -1:  10 from tile    13 (pr=   1)
(PID.TID 0000.0001) Tile     6 (pr=   1) recv pts i=  -1:   0, j=  -1:  10 from tile     5 (pr=   1)
(PID.TID 0000.0001) Tile     7 (pr=   1) recv pts i=   7:  18, j=   9:  10 from tile    21 (pr=   1)
(PID.TID 0000.0001) Tile     7 (pr=   1) recv pts i=  -1:  10, j=   9:  10 from tile    23 (pr=   1)
(PID.TID 0000.0001) Tile     7 (pr=   1) recv pts i=  -1:  18, j=  -1:   0 from tile     5 (pr=   1)
(PID.TID 0000.0001) Tile     7 (pr=   1) recv pts i=  17:  18, j=  -1:  10 from tile     8 (pr=   1)
(PID.TID 0000.0001) Tile     7 (pr=   1) recv pts i=  -1:   0, j=  -1:  10 from tile    39 (pr=   1)
(PID.TID 0000.0001) Tile     8 (pr=   1) recv pts i=   7:  18, j=   9:  10 from tile    17 (pr=   1)
(PID.TID 0000.0001) Tile     8 (pr=   1) recv pts i=  -1:  10, j=   9:  10 from tile    19 (pr=   1)
(PID.TID 0000.0001) Tile     8 (pr=   1) recv pts i=  -1:  18, j=  -1:   0 from tile     6 (pr=   1)
(PID.TID 0000.0001) Tile     8 (pr=   1) recv pts i=  17:  18, j=  -1:  10 from tile    15 (pr=   1)
(PID.TID 0000.0001) Tile     8 (pr=   1) recv pts i=  -1:   0, j=  -1:  10 from tile     7 (pr=   1)
(PID.TID 0000.0001) Tile     9 (pr=   1) recv pts i=  -1:  18, j=   9:  10 from tile    11 (pr=   1)
(PID.TID 0000.0001) Tile     9 (pr=   1) recv pts i=   7:  18, j=  -1:   0 from tile    46 (pr=   1)
(PID.TID 0000.0001) Tile     9 (pr=   1) recv pts i=  -1:  10, j=  -1:   0 from tile    48 (pr=   1)
(PID.TID 0000.0001) Tile     9 (pr=   1) recv pts i=  17:  18, j=  -1:  10 from tile    10 (pr=   1)
(PID.TID 0000.0001) Tile     9 (pr=   1) recv pts i=  -1:   0, j=  -1:  10 from tile     2 (pr=   1)
(PID.TID 0000.0001) Tile    10 (pr=   1) recv pts i=  -1:  18, j=   9:  10 from tile    12 (pr=   1)
(PID.TID 0000.0001) Tile    10 (pr=   1) recv pts i=   7:  18, j=  -1:   0 from tile    42 (pr=   1)
(PID.TID 0000.0001) Tile    10 (pr=   1) recv pts i=  -1:  10, j=  -1:   0 from tile    44 (pr=   1)
(PID.TID 0000.0001) Tile    10 (pr=   1) recv pts i=  17:  18, j=  -1:  10 from tile    26 (pr=   1)
(PID.TID 0000.0001) Tile    10 (pr=   1) recv pts i=  -1:   0, j=  -1:  10 from tile     9 (pr=   1)
(PID.TID 0000.0001) Tile    11 (pr=   1) recv pts i=  -1:  18, j=   9:  10 from tile    13 (pr=   1)
(PID.TID 0000.0001) Tile    11 (pr=   1) recv pts i=  -1:  18, j=  -1:   0 from tile     9 (pr=   1)
(PID.TID 0000.0001) Tile    11 (pr=   1) recv pts i=  17:  18, j=  -1:  10 from tile    12 (pr=   1)
(PID.TID 0000.0001) Tile    11 (pr=   1) recv pts i=  -1:   0, j=  -1:  10 from tile     4 (pr=   1)
(PID.TID 0000.0001) Tile    12 (pr=   1) recv pts i=  -1:  18, j=   9:  10 from tile    14 (pr=   1)
(PID.TID 0000.0001) Tile    12 (pr=   1) recv pts i=  -1:  18, j=  -1:   0 from tile    10 (pr=   1)
(PID.TID 0000.0001) Tile    12 (pr=   1) recv pts i=  17:  18, j=  -1:  10 from tile    26 (pr=   1)
(PID.TID 0000.0001) Tile    12 (pr=   1) recv pts i=  -1:   0, j=  -1:  10 from tile    11 (pr=   1)
(PID.TID 0000.0001) Tile    13 (pr=   1) recv pts i=  -1:  18, j=   9:  10 from tile    15 (pr=   1)
(PID.TID 0000.0001) Tile    13 (pr=   1) recv pts i=  -1:  18, j=  -1:   0 from tile    11 (pr=   1)
(PID.TID 0000.0001) Tile    13 (pr=   1) recv pts i=  17:  18, j=  -1:  10 from tile    14 (pr=   1)
(PID.TID 0000.0001) Tile    13 (pr=   1) recv pts i=  -1:   0, j=  -1:  10 from tile     6 (pr=   1)
(PID.TID 0000.0001) Tile    14 (pr=   1) recv pts i=  -1:  18, j=   9:  10 from tile    16 (pr=   1)
(PID.TID 0000.0001) Tile    14 (pr=   1) recv pts i=  -1:  18, j=  -1:   0 from tile    12 (pr=   1)
(PID.TID 0000.0001) Tile    14 (pr=   1) recv pts i=  17:  18, j=  -1:  10 from tile    25 (pr=   1)
(PID.TID 0000.0001) Tile    14 (pr=   1) recv pts i=  -1:   0, j=  -1:  10 from tile    13 (pr=   1)
(PID.TID 0000.0001) Tile    15 (pr=   1) recv pts i=  -1:  18, j=   9:  10 from tile    17 (pr=   1)
(PID.TID 0000.0001) Tile    15 (pr=   1) recv pts i=  -1:  18, j=  -1:   0 from tile    13 (pr=   1)
(PID.TID 0000.0001) Tile    15 (pr=   1) recv pts i=  17:  18, j=  -1:  10 from tile    16 (pr=   1)
(PID.TID 0000.0001) Tile    15 (pr=   1) recv pts i=  -1:   0, j=  -1:  10 from tile     8 (pr=   1)
(PID.TID 0000.0001) Tile    16 (pr=   1) recv pts i=  -1:  18, j=   9:  10 from tile    18 (pr=   1)
(PID.TID 0000.0001) Tile    16 (pr=   1) recv pts i=  -1:  18, j=  -1:   0 from tile    14 (pr=   1)
(PID.TID 0000.0001) Tile    16 (pr=   1) recv pts i=  17:  18, j=  -1:  10 from tile    25 (pr=   1)
(PID.TID 0000.0001) Tile    16 (pr=   1) recv pts i=  -1:   0, j=  -1:  10 from tile    15 (pr=   1)
(PID.TID 0000.0001) Tile    17 (pr=   1) recv pts i=  -1:  18, j=   9:  10 from tile    19 (pr=   1)
(PID.TID 0000.0001) Tile    17 (pr=   1) recv pts i=  -1:  18, j=  -1:   0 from tile    15 (pr=   1)
(PID.TID 0000.0001) Tile    17 (pr=   1) recv pts i=  17:  18, j=  -1:  10 from tile    18 (pr=   1)
(PID.TID 0000.0001) Tile    17 (pr=   1) recv pts i=  -1:   0, j=  -1:  10 from tile     8 (pr=   1)
(PID.TID 0000.0001) Tile    18 (pr=   1) recv pts i=  -1:  18, j=   9:  10 from tile    20 (pr=   1)
(PID.TID 0000.0001) Tile    18 (pr=   1) recv pts i=  -1:  18, j=  -1:   0 from tile    16 (pr=   1)
(PID.TID 0000.0001) Tile    18 (pr=   1) recv pts i=  17:  18, j=  -1:  10 from tile    25 (pr=   1)
(PID.TID 0000.0001) Tile    18 (pr=   1) recv pts i=  -1:   0, j=  -1:  10 from tile    17 (pr=   1)
(PID.TID 0000.0001) Tile    19 (pr=   1) recv pts i=  -1:  18, j=   9:  10 from tile    21 (pr=   1)
(PID.TID 0000.0001) Tile    19 (pr=   1) recv pts i=  -1:  18, j=  -1:   0 from tile    17 (pr=   1)
(PID.TID 0000.0001) Tile    19 (pr=   1) recv pts i=  17:  18, j=  -1:  10 from tile    20 (pr=   1)
(PID.TID 0000.0001) Tile    19 (pr=   1) recv pts i=  -1:   0, j=  -1:  10 from tile     8 (pr=   1)
(PID.TID 0000.0001) Tile    20 (pr=   1) recv pts i=  -1:  18, j=   9:  10 from tile    22 (pr=   1)
(PID.TID 0000.0001) Tile    20 (pr=   1) recv pts i=  -1:  18, j=  -1:   0 from tile    18 (pr=   1)
(PID.TID 0000.0001) Tile    20 (pr=   1) recv pts i=  17:  18, j=  -1:  10 from tile    27 (pr=   1)
(PID.TID 0000.0001) Tile    20 (pr=   1) recv pts i=  -1:   0, j=  -1:  10 from tile    19 (pr=   1)
(PID.TID 0000.0001) Tile    21 (pr=   1) recv pts i=  -1:  18, j=   9:  10 from tile    23 (pr=   1)
(PID.TID 0000.0001) Tile    21 (pr=   1) recv pts i=  -1:  18, j=  -1:   0 from tile    19 (pr=   1)
(PID.TID 0000.0001) Tile    21 (pr=   1) recv pts i=  17:  18, j=  -1:  10 from tile    22 (pr=   1)
(PID.TID 0000.0001) Tile    21 (pr=   1) recv pts i=  -1:   0, j=  -1:  10 from tile     7 (pr=   1)
(PID.TID 0000.0001) Tile    22 (pr=   1) recv pts i=  -1:  18, j=   9:  10 from tile    24 (pr=   1)
(PID.TID 0000.0001) Tile    22 (pr=   1) recv pts i=  -1:  18, j=  -1:   0 from tile    20 (pr=   1)
(PID.TID 0000.0001) Tile    22 (pr=   1) recv pts i=  17:  18, j=  -1:  10 from tile    29 (pr=   1)
(PID.TID 0000.0001) Tile    22 (pr=   1) recv pts i=  -1:   0, j=  -1:  10 from tile    21 (pr=   1)
(PID.TID 0000.0001) Tile    23 (pr=   1) recv pts i=   7:  18, j=   9:  10 from tile    37 (pr=   1)
(PID.TID 0000.0001) Tile    23 (pr=   1) recv pts i=  -1:  10, j=   9:  10 from tile    39 (pr=   1)
(PID.TID 0000.0001) Tile    23 (pr=   1) recv pts i=  -1:  18, j=  -1:   0 from tile    21 (pr=   1)
(PID.TID 0000.0001) Tile    23 (pr=   1) recv pts i=  17:  18, j=  -1:  10 from tile    24 (pr=   1)
(PID.TID 0000.0001) Tile    23 (pr=   1) recv pts i=  -1:   0, j=  -1:  10 from tile     7 (pr=   1)
(PID.TID 0000.0001) Tile    24 (pr=   1) recv pts i=   7:  18, j=   9:  10 from tile    33 (pr=   1)
(PID.TID 0000.0001) Tile    24 (pr=   1) recv pts i=  -1:  10, j=   9:  10 from tile    35 (pr=   1)
(PID.TID 0000.0001) Tile    24 (pr=   1) recv pts i=  -1:  18, j=  -1:   0 from tile    22 (pr=   1)
(PID.TID 0000.0001) Tile    24 (pr=   1) recv pts i=  17:  18, j=  -1:  10 from tile    31 (pr=   1)
(PID.TID 0000.0001) Tile    24 (pr=   1) recv pts i=  -1:   0, j=  -1:  10 from tile    23 (pr=   1)
(PID.TID 0000.0001) Tile    25 (pr=   1) recv pts i=  -1:  18, j=   9:  10 from tile    27 (pr=   1)
(PID.TID 0000.0001) Tile    25 (pr=   1) recv pts i=   7:  18, j=  -1:   0 from tile    14 (pr=   1)
(PID.TID 0000.0001) Tile    25 (pr=   1) recv pts i=  -1:  10, j=  -1:   0 from tile    16 (pr=   1)
(PID.TID 0000.0001) Tile    25 (pr=   1) recv pts i=  17:  18, j=  -1:  10 from tile    26 (pr=   1)
(PID.TID 0000.0001) Tile    25 (pr=   1) recv pts i=  -1:   0, j=  -1:  10 from tile    18 (pr=   1)
(PID.TID 0000.0001) Tile    26 (pr=   1) recv pts i=  -1:  18, j=   9:  10 from tile    28 (pr=   1)
(PID.TID 0000.0001) Tile    26 (pr=   1) recv pts i=   7:  18, j=  -1:   0 from tile    10 (pr=   1)
(PID.TID 0000.0001) Tile    26 (pr=   1) recv pts i=  -1:  10, j=  -1:   0 from tile    12 (pr=   1)
(PID.TID 0000.0001) Tile    26 (pr=   1) recv pts i=  17:  18, j=  -1:  10 from tile    42 (pr=   1)
(PID.TID 0000.0001) Tile    26 (pr=   1) recv pts i=  -1:   0, j=  -1:  10 from tile    25 (pr=   1)
(PID.TID 0000.0001) Tile    27 (pr=   1) recv pts i=  -1:  18, j=   9:  10 from tile    29 (pr=   1)
(PID.TID 0000.0001) Tile    27 (pr=   1) recv pts i=  -1:  18, j=  -1:   0 from tile    25 (pr=   1)
(PID.TID 0000.0001) Tile    27 (pr=   1) recv pts i=  17:  18, j=  -1:  10 from tile    28 (pr=   1)
(PID.TID 0000.0001) Tile    27 (pr=   1) recv pts i=  -1:   0, j=  -1:  10 from tile    20 (pr=   1)
(PID.TID 0000.0001) Tile    28 (pr=   1) recv pts i=  -1:  18, j=   9:  10 from tile    30 (pr=   1)
(PID.TID 0000.0001) Tile    28 (pr=   1) recv pts i=  -1:  18, j=  -1:   0 from tile    26 (pr=   1)
(PID.TID 0000.0001) Tile    28 (pr=   1) recv pts i=  17:  18, j=  -1:  10 from tile    42 (pr=   1)
(PID.TID 0000.0001) Tile    28 (pr=   1) recv pts i=  -1:   0, j=  -1:  10 from tile    27 (pr=   1)
(PID.TID 0000.0001) Tile    29 (pr=   1) recv pts i=  -1:  18, j=   9:  10 from tile    31 (pr=   1)
(PID.TID 0000.0001) Tile    29 (pr=   1) recv pts i=  -1:  18, j=  -1:   0 from tile    27 (pr=   1)
(PID.TID 0000.0001) Tile    29 (pr=   1) recv pts i=  17:  18, j=  -1:  10 from tile    30 (pr=   1)
(PID.TID 0000.0001) Tile    29 (pr=   1) recv pts i=  -1:   0, j=  -1:  10 from tile    22 (pr=   1)
(PID.TID 0000.0001) Tile    30 (pr=   1) recv pts i=  -1:  18, j=   9:  10 from tile    32 (pr=   1)
(PID.TID 0000.0001) Tile    30 (pr=   1) recv pts i=  -1:  18, j=  -1:   0 from tile    28 (pr=   1)
(PID.TID 0000.0001) Tile    30 (pr=   1) recv pts i=  17:  18, j=  -1:  10 from tile    41 (pr=   1)
(PID.TID 0000.0001) Tile    30 (pr=   1) recv pts i=  -1:   0, j=  -1:  10 from tile    29 (pr=   1)
(PID.TID 0000.0001) Tile    31 (pr=   1) recv pts i=  -1:  18, j=   9:  10 from tile    33 (pr=   1)
(PID.TID 0000.0001) Tile    31 (pr=   1) recv pts i=  -1:  18, j=  -1:   0 from tile    29 (pr=   1)
(PID.TID 0000.0001) Tile    31 (pr=   1) recv pts i=  17:  18, j=  -1:  10 from tile    32 (pr=   1)
(PID.TID 0000.0001) Tile    31 (pr=   1) recv pts i=  -1:   0, j=  -1:  10 from tile    24 (pr=   1)
(PID.TID 0000.0001) Tile    32 (pr=   1) recv pts i=  -1:  18, j=   9:  10 from tile    34 (pr=   1)
(PID.TID 0000.0001) Tile    32 (pr=   1) recv pts i=  -1:  18, j=  -1:   0 from tile    30 (pr=   1)
(PID.TID 0000.0001) Tile    32 (pr=   1) recv pts i=  17:  18, j=  -1:  10 from tile    41 (pr=   1)
(PID.TID 0000.0001) Tile    32 (pr=   1) recv pts i=  -1:   0, j=  -1:  10 from tile    31 (pr=   1)
(PID.TID 0000.0001) Tile    33 (pr=   1) recv pts i=  -1:  18, j=   9:  10 from tile    35 (pr=   1)
(PID.TID 0000.0001) Tile    33 (pr=   1) recv pts i=  -1:  18, j=  -1:   0 from tile    31 (pr=   1)
(PID.TID 0000.0001) Tile    33 (pr=   1) recv pts i=  17:  18, j=  -1:  10 from tile    34 (pr=   1)
(PID.TID 0000.0001) Tile    33 (pr=   1) recv pts i=  -1:   0, j=  -1:  10 from tile    24 (pr=   1)
(PID.TID 0000.0001) Tile    34 (pr=   1) recv pts i=  -1:  18, j=   9:  10 from tile    36 (pr=   1)
(PID.TID 0000.0001) Tile    34 (pr=   1) recv pts i=  -1:  18, j=  -1:   0 from tile    32 (pr=   1)
(PID.TID 0000.0001) Tile    34 (pr=   1) recv pts i=  17:  18, j=  -1:  10 from tile    41 (pr=   1)
(PID.TID 0000.0001) Tile    34 (pr=   1) recv pts i=  -1:   0, j=  -1:  10 from tile    33 (pr=   1)
(PID.TID 0000.0001) Tile    35 (pr=   1) recv pts i=  -1:  18, j=   9:  10 from tile    37 (pr=   1)
(PID.TID 0000.0001) Tile    35 (pr=   1) recv pts i=  -1:  18, j=  -1:   0 from tile    33 (pr=   1)
(PID.TID 0000.0001) Tile    35 (pr=   1) recv pts i=  17:  18, j=  -1:  10 from tile    36 (pr=   1)
(PID.TID 0000.0001) Tile    35 (pr=   1) recv pts i=  -1:   0, j=  -1:  10 from tile    24 (pr=   1)
(PID.TID 0000.0001) Tile    36 (pr=   1) recv pts i=  -1:  18, j=   9:  10 from tile    38 (pr=   1)
(PID.TID 0000.0001) Tile    36 (pr=   1) recv pts i=  -1:  18, j=  -1:   0 from tile    34 (pr=   1)
(PID.TID 0000.0001) Tile    36 (pr=   1) recv pts i=  17:  18, j=  -1:  10 from tile    43 (pr=   1)
(PID.TID 0000.0001) Tile    36 (pr=   1) recv pts i=  -1:   0, j=  -1:  10 from tile    35 (pr=   1)
(PID.TID 0000.0001) Tile    37 (pr=   1) recv pts i=  -1:  18, j=   9:  10 from tile    39 (pr=   1)
(PID.TID 0000.0001) Tile    37 (pr=   1) recv pts i=  -1:  18, j=  -1:   0 from tile    35 (pr=   1)
(PID.TID 0000.0001) Tile    37 (pr=   1) recv pts i=  17:  18, j=  -1:  10 from tile    38 (pr=   1)
(PID.TID 0000.0001) Tile    37 (pr=   1) recv pts i=  -1:   0, j=  -1:  10 from tile    23 (pr=   1)
(PID.TID 0000.0001) Tile    38 (pr=   1) recv pts i=  -1:  18, j=   9:  10 from tile    40 (pr=   1)
(PID.TID 0000.0001) Tile    38 (pr=   1) recv pts i=  -1:  18, j=  -1:   0 from tile    36 (pr=   1)
(PID.TID 0000.0001) Tile    38 (pr=   1) recv pts i=  17:  18, j=  -1:  10 from tile    45 (pr=   1)
(PID.TID 0000.0001) Tile    38 (pr=   1) recv pts i=  -1:   0, j=  -1:  10 from tile    37 (pr=   1)
(PID.TID 0000.0001) Tile    39 (pr=   1) recv pts i=   7:  18, j=   9:  10 from tile     5 (pr=   1)
(PID.TID 0000.0001) Tile    39 (pr=   1) recv pts i=  -1:  10, j=   9:  10 from tile     7 (pr=   1)
(PID.TID 0000.0001) Tile    39 (pr=   1) recv pts i=  -1:  18, j=  -1:   0 from tile    37 (pr=   1)
(PID.TID 0000.0001) Tile    39 (pr=   1) recv pts i=  17:  18, j=  -1:  10 from tile    40 (pr=   1)
(PID.TID 0000.0001) Tile    39 (pr=   1) recv pts i=  -1:   0, j=  -1:  10 from tile    23 (pr=   1)
(PID.TID 0000.0001) Tile    40 (pr=   1) recv pts i=   7:  18, j=   9:  10 from tile     1 (pr=   1)
(PID.TID 0000.0001) Tile    40 (pr=   1) recv pts i=  -1:  10, j=   9:  10 from tile     3 (pr=   1)
(PID.TID 0000.0001) Tile    40 (pr=   1) recv pts i=  -1:  18, j=  -1:   0 from tile    38 (pr=   1)
(PID.TID 0000.0001) Tile    40 (pr=   1) recv pts i=  17:  18, j=  -1:  10 from tile    47 (pr=   1)
(PID.TID 0000.0001) Tile    40 (pr=   1) recv pts i=  -1:   0, j=  -1:  10 from tile    39 (pr=   1)
(PID.TID 0000.0001) Tile    41 (pr=   1) recv pts i=  -1:  18, j=   9:  10 from tile    43 (pr=   1)
(PID.TID 0000.0001) Tile    41 (pr=   1) recv pts i=   7:  18, j=  -1:   0 from tile    30 (pr=   1)
(PID.TID 0000.0001) Tile    41 (pr=   1) recv pts i=  -1:  10, j=  -1:   0 from tile    32 (pr=   1)
(PID.TID 0000.0001) Tile    41 (pr=   1) recv pts i=  17:  18, j=  -1:  10 from tile    42 (pr=   1)
(PID.TID 0000.0001) Tile    41 (pr=   1) recv pts i=  -1:   0, j=  -1:  10 from tile    34 (pr=   1)
(PID.TID 0000.0001) Tile    42 (pr=   1) recv pts i=  -1:  18, j=   9:  10 from tile    44 (pr=   1)
(PID.TID 0000.0001) Tile    42 (pr=   1) recv pts i=   7:  18, j=  -1:   0 from tile    26 (pr=   1)
(PID.TID 0000.0001) Tile    42 (pr=   1) recv pts i=  -1:  10, j=  -1:   0 from tile    28 (pr=   1)
(PID.TID 0000.0001) Tile    42 (pr=   1) recv pts i=  17:  18, j=  -1:  10 from tile    10 (pr=   1)
(PID.TID 0000.0001) Tile    42 (pr=   1) recv pts i=  -1:   0, j=  -1:  10 from tile    41 (pr=   1)
(PID.TID 0000.0001) Tile    43 (pr=   1) recv pts i=  -1:  18, j=   9:  10 from tile    45 (pr=   1)
(PID.TID 0000.0001) Tile    43 (pr=   1) recv pts i=  -1:  18, j=  -1:   0 from tile    41 (pr=   1)
(PID.TID 0000.0001) Tile    43 (pr=   1) recv pts i=  17:  18, j=  -1:  10 from tile    44 (pr=   1)
(PID.TID 0000.0001) Tile    43 (pr=   1) recv pts i=  -1:   0, j=  -1:  10 from tile    36 (pr=   1)
(PID.TID 0000.0001) Tile    44 (pr=   1) recv pts i=  -1:  18, j=   9:  10 from tile    46 (pr=   1)
(PID.TID 0000.0001) Tile    44 (pr=   1) recv pts i=  -1:  18, j=  -1:   0 from tile    42 (pr=   1)
(PID.TID 0000.0001) Tile    44 (pr=   1) recv pts i=  17:  18, j=  -1:  10 from tile    10 (pr=   1)
(PID.TID 0000.0001) Tile    44 (pr=   1) recv pts i=  -1:   0, j=  -1:  10 from tile    43 (pr=   1)
(PID.TID 0000.0001) Tile    45 (pr=   1) recv pts i=  -1:  18, j=   9:  10 from tile    47 (pr=   1)
(PID.TID 0000.0001) Tile    45 (pr=   1) recv pts i=  -1:  18, j=  -1:   0 from tile    43 (pr=   1)
(PID.TID 0000.0001) Tile    45 (pr=   1) recv pts i=  17:  18, j=  -1:  10 from tile    46 (pr=   1)
(PID.TID 0000.0001) Tile    45 (pr=   1) recv pts i=  -1:   0, j=  -1:  10 from tile    38 (pr=   1)
(PID.TID 0000.0001) Tile    46 (pr=   1) recv pts i=  -1:  18, j=   9:  10 from tile    48 (pr=   1)
(PID.TID 0000.0001) Tile    46 (pr=   1) recv pts i=  -1:  18, j=  -1:   0 from tile    44 (pr=   1)
(PID.TID 0000.0001) Tile    46 (pr=   1) recv pts i=  17:  18, j=  -1:  10 from tile     9 (pr=   1)
(PID.TID 0000.0001) Tile    46 (pr=   1) recv pts i=  -1:   0, j=  -1:  10 from tile    45 (pr=   1)
(PID.TID 0000.0001) Tile    47 (pr=   1) recv pts i=  -1:  18, j=   9:  10 from tile     1 (pr=   1)
(PID.TID 0000.0001) Tile    47 (pr=   1) recv pts i=  -1:  18, j=  -1:   0 from tile    45 (pr=   1)
(PID.TID 0000.0001) Tile    47 (pr=   1) recv pts i=  17:  18, j=  -1:  10 from tile    48 (pr=   1)
(PID.TID 0000.0001) Tile    47 (pr=   1) recv pts i=  -1:   0, j=  -1:  10 from tile    40 (pr=   1)
(PID.TID 0000.0001) Tile    48 (pr=   1) recv pts i=  -1:  18, j=   9:  10 from tile     2 (pr=   1)
(PID.TID 0000.0001) Tile    48 (pr=   1) recv pts i=  -1:  18, j=  -1:   0 from tile    46 (pr=   1)
(PID.TID 0000.0001) Tile    48 (pr=   1) recv pts i=  17:  18, j=  -1:  10 from tile     9 (pr=   1)
(PID.TID 0000.0001) Tile    48 (pr=   1) recv pts i=  -1:   0, j=  -1:  10 from tile    47 (pr=   1)
(PID.TID 0000.0001) // =======================================================
(PID.TID 0000.0001) // Model parameter file "data"
(PID.TID 0000.0001) // =======================================================
(PID.TID 0000.0001) ># ====================
(PID.TID 0000.0001) ># | Model parameters |
(PID.TID 0000.0001) ># ====================
(PID.TID 0000.0001) >#
(PID.TID 0000.0001) ># Continuous equation parameters
(PID.TID 0000.0001) > &PARM01
(PID.TID 0000.0001) > tRef=15.,
(PID.TID 0000.0001) > sRef=0.,
(PID.TID 0000.0001) > viscAr=0.,
(PID.TID 0000.0001) > viscAh=0.,
(PID.TID 0000.0001) > viscA4=0.,
(PID.TID 0000.0001) > no_slip_sides=.FALSE.,
(PID.TID 0000.0001) > no_slip_bottom=.FALSE.,
(PID.TID 0000.0001) > buoyancyRelation='OCEANIC',
(PID.TID 0000.0001) > eosType='LINEAR',
(PID.TID 0000.0001) > gravity=9.8184,
(PID.TID 0000.0001) > rhonil=1000.,
(PID.TID 0000.0001) > rhoConst=1000.,
(PID.TID 0000.0001) > implicitFreeSurface=.TRUE.,
(PID.TID 0000.0001) > implicSurfPress=0.5,
(PID.TID 0000.0001) > implicDiv2DFlow=0.5,
(PID.TID 0000.0001) >#nonlinFreeSurf=3,
(PID.TID 0000.0001) >#hFacInf=0.2,
(PID.TID 0000.0001) >#hFacSup=1.8,
(PID.TID 0000.0001) > exactConserv=.TRUE.,
(PID.TID 0000.0001) > momAdvection=.FALSE.,
(PID.TID 0000.0001) >#useCoriolis=.FALSE.,
(PID.TID 0000.0001) > tempStepping=.FALSE.,
(PID.TID 0000.0001) > saltStepping=.FALSE.,
(PID.TID 0000.0001) > readBinaryPrec=64,
(PID.TID 0000.0001) > writeBinaryPrec=64,
(PID.TID 0000.0001) > useSingleCpuIO=.TRUE.,
(PID.TID 0000.0001) > &
(PID.TID 0000.0001) >
(PID.TID 0000.0001) ># Elliptic solver parameters
(PID.TID 0000.0001) > &PARM02
(PID.TID 0000.0001) > cg2dMaxIters=600,
(PID.TID 0000.0001) > cg2dTargetResidual=1.E-13,
(PID.TID 0000.0001) > &
(PID.TID 0000.0001) >
(PID.TID 0000.0001) ># Time stepping parameters
(PID.TID 0000.0001) > &PARM03
(PID.TID 0000.0001) > nIter0=0,
(PID.TID 0000.0001) > nTimeSteps=24,
(PID.TID 0000.0001) >#endTime=172800.,
(PID.TID 0000.0001) > abEps=0.1,
(PID.TID 0000.0001) > deltaT=900.,
(PID.TID 0000.0001) > cAdjFreq=0.,
(PID.TID 0000.0001) > pChkptFreq=0.,
(PID.TID 0000.0001) > chkptFreq=0.,
(PID.TID 0000.0001) > dumpFreq=10800.,
(PID.TID 0000.0001) > monitorFreq=1.,
(PID.TID 0000.0001) > &
(PID.TID 0000.0001) >
(PID.TID 0000.0001) ># Gridding parameters
(PID.TID 0000.0001) > &PARM04
(PID.TID 0000.0001) > usingCurvilinearGrid=.TRUE.,
(PID.TID 0000.0001) > delR=1366.,
(PID.TID 0000.0001) > &
(PID.TID 0000.0001) >
(PID.TID 0000.0001) ># Input datasets
(PID.TID 0000.0001) > &PARM05
(PID.TID 0000.0001) > bathyFile='bathy_f2.bin',
(PID.TID 0000.0001) > pSurfInitFile='ssh_eq.bin',
(PID.TID 0000.0001) > &
(PID.TID 0000.0001) 
(PID.TID 0000.0001) S/R INI_PARMS ; starts to read PARM01
(PID.TID 0000.0001) S/R INI_PARMS ; read PARM01 : OK
(PID.TID 0000.0001) S/R INI_PARMS ; starts to read PARM02
(PID.TID 0000.0001) S/R INI_PARMS ; read PARM02 : OK
(PID.TID 0000.0001) S/R INI_PARMS ; starts to read PARM03
(PID.TID 0000.0001) S/R INI_PARMS ; read PARM03 : OK
(PID.TID 0000.0001) S/R INI_PARMS ; starts to read PARM04
(PID.TID 0000.0001) S/R INI_PARMS ; read PARM04 : OK
(PID.TID 0000.0001) S/R INI_PARMS ; starts to read PARM05
(PID.TID 0000.0001) S/R INI_PARMS ; read PARM05 : OK
(PID.TID 0000.0001)  PACKAGES_BOOT: opening data.pkg
(PID.TID 0000.0001)  OPEN_COPY_DATA_FILE: opening file data.pkg
(PID.TID 0000.0001) // =======================================================
(PID.TID 0000.0001) // Parameter file "data.pkg"
(PID.TID 0000.0001) // =======================================================
(PID.TID 0000.0001) ># Packages
(PID.TID 0000.0001) > &PACKAGES
(PID.TID 0000.0001) > &
(PID.TID 0000.0001) 
(PID.TID 0000.0001)  PACKAGES_BOOT: finished reading data.pkg
(PID.TID 0000.0001) SET_PARMS: done
(PID.TID 0000.0001) Enter INI_VERTICAL_GRID: setInterFDr=    T ; setCenterDr=    F
(PID.TID 0000.0001) tile:   1 ; Read from file tile001.mitgrid
(PID.TID 0000.0001)   => xC yC dxF dyF rA xG yG dxV dyU rAz dxC dyC rAw rAs dxG dyG
(PID.TID 0000.0001) tile:   2 ; Read from file tile001.mitgrid
(PID.TID 0000.0001)   => xC yC dxF dyF rA xG yG dxV dyU rAz dxC dyC rAw rAs dxG dyG
(PID.TID 0000.0001) tile:   3 ; Read from file tile001.mitgrid
(PID.TID 0000.0001)   => xC yC dxF dyF rA xG yG dxV dyU rAz dxC dyC rAw rAs dxG dyG
(PID.TID 0000.0001) tile:   4 ; Read from file tile001.mitgrid
(PID.TID 0000.0001)   => xC yC dxF dyF rA xG yG dxV dyU rAz dxC dyC rAw rAs dxG dyG
(PID.TID 0000.0001) tile:   5 ; Read from file tile001.mitgrid
(PID.TID 0000.0001)   => xC yC dxF dyF rA xG yG dxV dyU rAz dxC dyC rAw rAs dxG dyG
(PID.TID 0000.0001) tile:   6 ; Read from file tile001.mitgrid
(PID.TID 0000.0001)   => xC yC dxF dyF rA xG yG dxV dyU rAz dxC dyC rAw rAs dxG dyG
(PID.TID 0000.0001) tile:   7 ; Read from file tile001.mitgrid
(PID.TID 0000.0001)   => xC yC dxF dyF rA xG yG dxV dyU rAz dxC dyC rAw rAs dxG dyG
(PID.TID 0000.0001) tile:   8 ; Read from file tile001.mitgrid
(PID.TID 0000.0001)   => xC yC dxF dyF rA xG yG dxV dyU rAz dxC dyC rAw rAs dxG dyG
(PID.TID 0000.0001) tile:   9 ; Read from file tile002.mitgrid
(PID.TID 0000.0001)   => xC yC dxF dyF rA xG yG dxV dyU rAz dxC dyC rAw rAs dxG dyG
(PID.TID 0000.0001) tile:  10 ; Read from file tile002.mitgrid
(PID.TID 0000.0001)   => xC yC dxF dyF rA xG yG dxV dyU rAz dxC dyC rAw rAs dxG dyG
(PID.TID 0000.0001) tile:  11 ; Read from file tile002.mitgrid
(PID.TID 0000.0001)   => xC yC dxF dyF rA xG yG dxV dyU rAz dxC dyC rAw rAs dxG dyG
(PID.TID 0000.0001) tile:  12 ; Read from file tile002.mitgrid
(PID.TID 0000.0001)   => xC yC dxF dyF rA xG yG dxV dyU rAz dxC dyC rAw rAs dxG dyG
(PID.TID 0000.0001) tile:  13 ; Read from file tile002.mitgrid
(PID.TID 0000.0001)   => xC yC dxF dyF rA xG yG dxV dyU rAz dxC dyC rAw rAs dxG dyG
(PID.TID 0000.0001) tile:  14 ; Read from file tile002.mitgrid
(PID.TID 0000.0001)   => xC yC dxF dyF rA xG yG dxV dyU rAz dxC dyC rAw rAs dxG dyG
(PID.TID 0000.0001) tile:  15 ; Read from file tile002.mitgrid
(PID.TID 0000.0001)   => xC yC dxF dyF rA xG yG dxV dyU rAz dxC dyC rAw rAs dxG dyG
(PID.TID 0000.0001) tile:  16 ; Read from file tile002.mitgrid
(PID.TID 0000.0001)   => xC yC dxF dyF rA xG yG dxV dyU rAz dxC dyC rAw rAs dxG dyG
(PID.TID 0000.0001) tile:  17 ; Read from file tile003.mitgrid
(PID.TID 0000.0001)   => xC yC dxF dyF rA xG yG dxV dyU rAz dxC dyC rAw rAs dxG dyG
(PID.TID 0000.0001) tile:  18 ; Read from file tile003.mitgrid
(PID.TID 0000.0001)   => xC yC dxF dyF rA xG yG dxV dyU rAz dxC dyC rAw rAs dxG dyG
(PID.TID 0000.0001) tile:  19 ; Read from file tile003.mitgrid
(PID.TID 0000.0001)   => xC yC dxF dyF rA xG yG dxV dyU rAz dxC dyC rAw rAs dxG dyG
(PID.TID 0000.0001) tile:  20 ; Read from file tile003.mitgrid
(PID.TID 0000.0001)   => xC yC dxF dyF rA xG yG dxV dyU rAz dxC dyC rAw rAs dxG dyG
(PID.TID 0000.0001) tile:  21 ; Read from file tile003.mitgrid
(PID.TID 0000.0001)   => xC yC dxF dyF rA xG yG dxV dyU rAz dxC dyC rAw rAs dxG dyG
(PID.TID 0000.0001) tile:  22 ; Read from file tile003.mitgrid
(PID.TID 0000.0001)   => xC yC dxF dyF rA xG yG dxV dyU rAz dxC dyC rAw rAs dxG dyG
(PID.TID 0000.0001) tile:  23 ; Read from file tile003.mitgrid
(PID.TID 0000.0001)   => xC yC dxF dyF rA xG yG dxV dyU rAz dxC dyC rAw rAs dxG dyG
(PID.TID 0000.0001) tile:  24 ; Read from file tile003.mitgrid
(PID.TID 0000.0001)   => xC yC dxF dyF rA xG yG dxV dyU rAz dxC dyC rAw rAs dxG dyG
(PID.TID 0000.0001) tile:  25 ; Read from file tile004.mitgrid
(PID.TID 0000.0001)   => xC yC dxF dyF rA xG yG dxV dyU rAz dxC dyC rAw rAs dxG dyG
(PID.TID 0000.0001) tile:  26 ; Read from file tile004.mitgrid
(PID.TID 0000.0001)   => xC yC dxF dyF rA xG yG dxV dyU rAz dxC dyC rAw rAs dxG dyG
(PID.TID 0000.0001) tile:  27 ; Read from file tile004.mitgrid
(PID.TID 0000.0001)   => xC yC dxF dyF rA xG yG dxV dyU rAz dxC dyC rAw rAs dxG dyG
(PID.TID 0000.0001) tile:  28 ; Read from file tile004.mitgrid
(PID.TID 0000.0001)   => xC yC dxF dyF rA xG yG dxV dyU rAz dxC dyC rAw rAs dxG dyG
(PID.TID 0000.0001) tile:  29 ; Read from file tile004.mitgrid
(PID.TID 0000.0001)   => xC yC dxF dyF rA xG yG dxV dyU rAz dxC dyC rAw rAs dxG dyG
(PID.TID 0000.0001) tile:  30 ; Read from file tile004.mitgrid
(PID.TID 0000.0001)   => xC yC dxF dyF rA xG yG dxV dyU rAz dxC dyC rAw rAs dxG dyG
(PID.TID 0000.0001) tile:  31 ; Read from file tile004.mitgrid
(PID.TID 0000.0001)   => xC yC dxF dyF rA xG yG dxV dyU rAz dxC dyC rAw rAs dxG dyG
(PID.TID 0000.0001) tile:  32 ; Read from file tile004.mitgrid
(PID.TID 0000.0001)   => xC yC dxF dyF rA xG yG dxV dyU rAz dxC dyC rAw rAs dxG dyG
(PID.TID 0000.0001) tile:  33 ; Read from file tile005.mitgrid
(PID.TID 0000.0001)   => xC yC dxF dyF rA xG yG dxV dyU rAz dxC dyC rAw rAs dxG dyG
(PID.TID 0000.0001) tile:  34 ; Read from file tile005.mitgrid
(PID.TID 0000.0001)   => xC yC dxF dyF rA xG yG dxV dyU rAz dxC dyC rAw rAs dxG dyG
(PID.TID 0000.0001) tile:  35 ; Read from file tile005.mitgrid
(PID.TID 0000.0001)   => xC yC dxF dyF rA xG yG dxV dyU rAz dxC dyC rAw rAs dxG dyG
(PID.TID 0000.0001) tile:  36 ; Read from file tile005.mitgrid
(PID.TID 0000.0001)   => xC yC dxF dyF rA xG yG dxV dyU rAz dxC dyC rAw rAs dxG dyG
(PID.TID 0000.0001) tile:  37 ; Read from file tile005.mitgrid
(PID.TID 0000.0001)   => xC yC dxF dyF rA xG yG dxV dyU rAz dxC dyC rAw rAs dxG dyG
(PID.TID 0000.0001) tile:  38 ; Read from file tile005.mitgrid
(PID.TID 0000.0001)   => xC yC dxF dyF rA xG yG dxV dyU rAz dxC dyC rAw rAs dxG dyG
(PID.TID 0000.0001) tile:  39 ; Read from file tile005.mitgrid
(PID.TID 0000.0001)   => xC yC dxF dyF rA xG yG dxV dyU rAz dxC dyC rAw rAs dxG dyG
(PID.TID 0000.0001) tile:  40 ; Read from file tile005.mitgrid
(PID.TID 0000.0001)   => xC yC dxF dyF rA xG yG dxV dyU rAz dxC dyC rAw rAs dxG dyG
(PID.TID 0000.0001) tile:  41 ; Read from file tile006.mitgrid
(PID.TID 0000.0001)   => xC yC dxF dyF rA xG yG dxV dyU rAz dxC dyC rAw rAs dxG dyG
(PID.TID 0000.0001) tile:  42 ; Read from file tile006.mitgrid
(PID.TID 0000.0001)   => xC yC dxF dyF rA xG yG dxV dyU rAz dxC dyC rAw rAs dxG dyG
(PID.TID 0000.0001) tile:  43 ; Read from file tile006.mitgrid
(PID.TID 0000.0001)   => xC yC dxF dyF rA xG yG dxV dyU rAz dxC dyC rAw rAs dxG dyG
(PID.TID 0000.0001) tile:  44 ; Read from file tile006.mitgrid
(PID.TID 0000.0001)   => xC yC dxF dyF rA xG yG dxV dyU rAz dxC dyC rAw rAs dxG dyG
(PID.TID 0000.0001) tile:  45 ; Read from file tile006.mitgrid
(PID.TID 0000.0001)   => xC yC dxF dyF rA xG yG dxV dyU rAz dxC dyC rAw rAs dxG dyG
(PID.TID 0000.0001) tile:  46 ; Read from file tile006.mitgrid
(PID.TID 0000.0001)   => xC yC dxF dyF rA xG yG dxV dyU rAz dxC dyC rAw rAs dxG dyG
(PID.TID 0000.0001) tile:  47 ; Read from file tile006.mitgrid
(PID.TID 0000.0001)   => xC yC dxF dyF rA xG yG dxV dyU rAz dxC dyC rAw rAs dxG dyG
(PID.TID 0000.0001) tile:  48 ; Read from file tile006.mitgrid
(PID.TID 0000.0001)   => xC yC dxF dyF rA xG yG dxV dyU rAz dxC dyC rAw rAs dxG dyG
(PID.TID 0000.0001) %MON XC_max                       =   1.7854351589505E+02
(PID.TID 0000.0001) %MON XC_min                       =  -1.7854351589505E+02
(PID.TID 0000.0001) %MON XC_mean                      =  -5.9211894646675E-16
(PID.TID 0000.0001) %MON XC_sd                        =   1.0355545336287E+02
(PID.TID 0000.0001) %MON XG_max                       =   1.8000000000000E+02
(PID.TID 0000.0001) %MON XG_min                       =  -1.7708797161002E+02
(PID.TID 0000.0001) %MON XG_mean                      =   1.8603515625000E+00
(PID.TID 0000.0001) %MON XG_sd                        =   1.0357130300504E+02
(PID.TID 0000.0001) %MON DXC_max                      =   3.2375185836900E+05
(PID.TID 0000.0001) %MON DXC_min                      =   1.1142031410131E+05
(PID.TID 0000.0001) %MON DXC_mean                     =   2.8605689051214E+05
(PID.TID 0000.0001) %MON DXC_sd                       =   3.4042087138252E+04
(PID.TID 0000.0001) %MON DXF_max                      =   3.2369947500827E+05
(PID.TID 0000.0001) %MON DXF_min                      =   1.2020820513318E+05
(PID.TID 0000.0001) %MON DXF_mean                     =   2.8605437324820E+05
(PID.TID 0000.0001) %MON DXF_sd                       =   3.4050524252539E+04
(PID.TID 0000.0001) %MON DXG_max                      =   3.2375195872773E+05
(PID.TID 0000.0001) %MON DXG_min                      =   1.0098378008791E+05
(PID.TID 0000.0001) %MON DXG_mean                     =   2.8603818508931E+05
(PID.TID 0000.0001) %MON DXG_sd                       =   3.4140406908005E+04
(PID.TID 0000.0001) %MON DXV_max                      =   3.2380418162750E+05
(PID.TID 0000.0001) %MON DXV_min                      =   8.0152299824136E+04
(PID.TID 0000.0001) %MON DXV_mean                     =   2.8603970633619E+05
(PID.TID 0000.0001) %MON DXV_sd                       =   3.4145142117723E+04
(PID.TID 0000.0001) %MON YC_max                       =   8.7940663871962E+01
(PID.TID 0000.0001) %MON YC_min                       =  -8.7940663871962E+01
(PID.TID 0000.0001) %MON YC_mean                      =   4.4408920985006E-15
(PID.TID 0000.0001) %MON YC_sd                        =   3.8676242969072E+01
(PID.TID 0000.0001) %MON YG_max                       =   9.0000000000000E+01
(PID.TID 0000.0001) %MON YG_min                       =  -9.0000000000000E+01
(PID.TID 0000.0001) %MON YG_mean                      =   1.9243865760169E-15
(PID.TID 0000.0001) %MON YG_sd                        =   3.8676895860710E+01
(PID.TID 0000.0001) %MON DYC_max                      =   3.2375185836900E+05
(PID.TID 0000.0001) %MON DYC_min                      =   1.1142031410131E+05
(PID.TID 0000.0001) %MON DYC_mean                     =   2.8605689051214E+05
(PID.TID 0000.0001) %MON DYC_sd                       =   3.4042087138252E+04
(PID.TID 0000.0001) %MON DYF_max                      =   3.2369947500827E+05
(PID.TID 0000.0001) %MON DYF_min                      =   1.2020820513318E+05
(PID.TID 0000.0001) %MON DYF_mean                     =   2.8605437324820E+05
(PID.TID 0000.0001) %MON DYF_sd                       =   3.4050524252539E+04
(PID.TID 0000.0001) %MON DYG_max                      =   3.2375195872773E+05
(PID.TID 0000.0001) %MON DYG_min                      =   1.0098378008791E+05
(PID.TID 0000.0001) %MON DYG_mean                     =   2.8603818508931E+05
(PID.TID 0000.0001) %MON DYG_sd                       =   3.4140406908005E+04
(PID.TID 0000.0001) %MON DYU_max                      =   3.2380418162750E+05
(PID.TID 0000.0001) %MON DYU_min                      =   8.0152299824136E+04
(PID.TID 0000.0001) %MON DYU_mean                     =   2.8603970633619E+05
(PID.TID 0000.0001) %MON DYU_sd                       =   3.4145142117723E+04
(PID.TID 0000.0001) %MON RA_max                       =   1.0479260248419E+11
(PID.TID 0000.0001) %MON RA_min                       =   1.4019007022556E+10
(PID.TID 0000.0001) %MON RA_mean                      =   8.2992246709265E+10
(PID.TID 0000.0001) %MON RA_sd                        =   1.7509089299457E+10
(PID.TID 0000.0001) %MON RAW_max                      =   1.0480965274559E+11
(PID.TID 0000.0001) %MON RAW_min                      =   1.2166903467143E+10
(PID.TID 0000.0001) %MON RAW_mean                     =   8.2992246709235E+10
(PID.TID 0000.0001) %MON RAW_sd                       =   1.7481917919656E+10
(PID.TID 0000.0001) %MON RAS_max                      =   1.0480965274559E+11
(PID.TID 0000.0001) %MON RAS_min                      =   1.2166903467143E+10
(PID.TID 0000.0001) %MON RAS_mean                     =   8.2992246709235E+10
(PID.TID 0000.0001) %MON RAS_sd                       =   1.7481917919656E+10
(PID.TID 0000.0001) %MON RAZ_max                      =   1.0484349334619E+11
(PID.TID 0000.0001) %MON RAZ_min                      =   8.8317900612505E+09
(PID.TID 0000.0001) %MON RAZ_mean                     =   8.2992246709235E+10
(PID.TID 0000.0001) %MON RAZ_sd                       =   1.7482297311044E+10
(PID.TID 0000.0001) %MON AngleCS_max                  =   1.0000000000000E+00
(PID.TID 0000.0001) %MON AngleCS_min                  =   1.0000000000000E+00
(PID.TID 0000.0001) %MON AngleCS_mean                 =   1.0000000000000E+00
(PID.TID 0000.0001) %MON AngleCS_sd                   =   0.0000000000000E+00
(PID.TID 0000.0001) %MON AngleSN_max                  =   0.0000000000000E+00
(PID.TID 0000.0001) %MON AngleSN_min                  =   0.0000000000000E+00
(PID.TID 0000.0001) %MON AngleSN_mean                 =   0.0000000000000E+00
(PID.TID 0000.0001) %MON AngleSN_sd                   =   0.0000000000000E+00
(PID.TID 0000.0001)  MDS_READ_FIELD: opening global file: bathy_f2.bin
(PID.TID 0000.0001) // =======================================================
(PID.TID 0000.0001) // Field Model R_low (ini_masks_etc) at iteration          1
(PID.TID 0000.0001) // CMIN =         -1.366000000000000E+03
(PID.TID 0000.0001) // CMAX =         -1.366000000000000E+03
(PID.TID 0000.0001) // CINT =          0.000000000000000E+00
(PID.TID 0000.0001) // SYMBOLS (CMIN->CMAX): -abcdefghijklmnopqrstuvwxyz+
(PID.TID 0000.0001) //                  0.0: .
(PID.TID 0000.0001) // RANGE I (Lo:Hi:Step):(  -1: 770:   1)
(PID.TID 0000.0001) // RANGE J (Lo:Hi:Step):(  10:  -1:  -1)
(PID.TID 0000.0001) // RANGE K (Lo:Hi:Step):(   1:   1:   1)
(PID.TID 0000.0001) // =======================================================
(PID.TID 0000.0001) // =======================================================
(PID.TID 0000.0001) // END OF FIELD                                          =
(PID.TID 0000.0001) // =======================================================
(PID.TID 0000.0001) 
(PID.TID 0000.0001) // =======================================================
(PID.TID 0000.0001) // Field Model Ro_surf (ini_masks_etc) at iteration          1
(PID.TID 0000.0001) // CMIN =          1.000000000000000E+32
(PID.TID 0000.0001) // CMAX =         -1.000000000000000E+32
(PID.TID 0000.0001) // CINT =          0.000000000000000E+00
(PID.TID 0000.0001) // SYMBOLS (CMIN->CMAX): -abcdefghijklmnopqrstuvwxyz+
(PID.TID 0000.0001) //                  0.0: .
(PID.TID 0000.0001) // RANGE I (Lo:Hi:Step):(  -1: 770:   1)
(PID.TID 0000.0001) // RANGE J (Lo:Hi:Step):(  10:  -1:  -1)
(PID.TID 0000.0001) // RANGE K (Lo:Hi:Step):(   1:   1:   1)
(PID.TID 0000.0001) // =======================================================
(PID.TID 0000.0001) // =======================================================
(PID.TID 0000.0001) // END OF FIELD                                          =
(PID.TID 0000.0001) // =======================================================
(PID.TID 0000.0001) 
(PID.TID 0000.0001) Empty tile: #    11 (bi=    11 )
(PID.TID 0000.0001) Empty tile: #    12 (bi=    12 )
(PID.TID 0000.0001) Empty tile: #    13 (bi=    13 )
(PID.TID 0000.0001) Empty tile: #    14 (bi=    14 )
(PID.TID 0000.0001) 
(PID.TID 0000.0001) // =======================================================
(PID.TID 0000.0001) // Field hFacC at iteration          1
(PID.TID 0000.0001) // CMIN =          1.000000000000000E+00
(PID.TID 0000.0001) // CMAX =          1.000000000000000E+00
(PID.TID 0000.0001) // CINT =          0.000000000000000E+00
(PID.TID 0000.0001) // SYMBOLS (CMIN->CMAX): -abcdefghijklmnopqrstuvwxyz+
(PID.TID 0000.0001) //                  0.0: .
(PID.TID 0000.0001) // RANGE I (Lo:Hi:Step):(  -1: 770:   1)
(PID.TID 0000.0001) // RANGE J (Lo:Hi:Step):(  10:  -1:  -1)
(PID.TID 0000.0001) // RANGE K (Lo:Hi:Step):(   1:   1:   1)
(PID.TID 0000.0001) // =======================================================
(PID.TID 0000.0001) // =======================================================
(PID.TID 0000.0001) // END OF FIELD                                          =
(PID.TID 0000.0001) // =======================================================
(PID.TID 0000.0001) 
(PID.TID 0000.0001) // =======================================================
(PID.TID 0000.0001) // Field hFacW at iteration          1
(PID.TID 0000.0001) // CMIN =          1.000000000000000E+00
(PID.TID 0000.0001) // CMAX =          1.000000000000000E+00
(PID.TID 0000.0001) // CINT =          0.000000000000000E+00
(PID.TID 0000.0001) // SYMBOLS (CMIN->CMAX): -abcdefghijklmnopqrstuvwxyz+
(PID.TID 0000.0001) //                  0.0: .
(PID.TID 0000.0001) // RANGE I (Lo:Hi:Step):(  -1: 770:   1)
(PID.TID 0000.0001) // RANGE J (Lo:Hi:Step):(  10:  -1:  -1)
(PID.TID 0000.0001) // RANGE K (Lo:Hi:Step):(   1:   1:   1)
(PID.TID 0000.0001) // =======================================================
(PID.TID 0000.0001) // =======================================================
(PID.TID 0000.0001) // END OF FIELD                                          =
(PID.TID 0000.0001) // =======================================================
(PID.TID 0000.0001) 
(PID.TID 0000.0001) // =======================================================
(PID.TID 0000.0001) // Field hFacS at iteration          1
(PID.TID 0000.0001) // CMIN =          1.000000000000000E+00
(PID.TID 0000.0001) // CMAX =          1.000000000000000E+00
(PID.TID 0000.0001) // CINT =          0.000000000000000E+00
(PID.TID 0000.0001) // SYMBOLS (CMIN->CMAX): -abcdefghijklmnopqrstuvwxyz+
(PID.TID 0000.0001) //                  0.0: .
(PID.TID 0000.0001) // RANGE I (Lo:Hi:Step):(  -1: 770:   1)
(PID.TID 0000.0001) // RANGE J (Lo:Hi:Step):(  10:  -1:  -1)
(PID.TID 0000.0001) // RANGE K (Lo:Hi:Step):(   1:   1:   1)
(PID.TID 0000.0001) // =======================================================
(PID.TID 0000.0001) // =======================================================
(PID.TID 0000.0001) // END OF FIELD                                          =
(PID.TID 0000.0001) // =======================================================
(PID.TID 0000.0001) 
(PID.TID 0000.0001) %MON fCori_max                    =   1.4574827780704E-04
(PID.TID 0000.0001) %MON fCori_min                    =  -1.4574827780704E-04
(PID.TID 0000.0001) %MON fCori_mean                   =   1.1858461261560E-20
(PID.TID 0000.0001) %MON fCori_sd                     =   8.4202189509968E-05
(PID.TID 0000.0001) %MON fCoriG_max                   =   1.4584247033981E-04
(PID.TID 0000.0001) %MON fCoriG_min                   =  -1.4584247033981E-04
(PID.TID 0000.0001) %MON fCoriG_mean                  =   5.0821976835258E-21
(PID.TID 0000.0001) %MON fCoriG_sd                    =   8.4202189509968E-05
(PID.TID 0000.0001) %MON fCoriCos_max                 =   1.4580166994612E-04
(PID.TID 0000.0001) %MON fCoriCos_min                 =   5.2407700865903E-06
(PID.TID 0000.0001) %MON fCoriCos_mean                =   1.1514045869113E-04
(PID.TID 0000.0001) %MON fCoriCos_sd                  =   3.0375849106513E-05
(PID.TID 0000.0001) INI_CG2D: CG2D normalisation factor =  2.9024774185495597E-03
(PID.TID 0000.0001) 
(PID.TID 0000.0001) // =======================================================
(PID.TID 0000.0001) // Model configuration
(PID.TID 0000.0001) // =======================================================
(PID.TID 0000.0001) //
(PID.TID 0000.0001) // "Physical" paramters ( PARM01 in namelist )
(PID.TID 0000.0001) //
(PID.TID 0000.0001) buoyancyRelation = /* Type of relation to get Buoyancy */
(PID.TID 0000.0001)               'OCEANIC'
(PID.TID 0000.0001)     ;
(PID.TID 0000.0001) fluidIsAir  =  /* fluid major constituent is Air */
(PID.TID 0000.0001)                   F
(PID.TID 0000.0001)     ;
(PID.TID 0000.0001) fluidIsWater=  /* fluid major constituent is Water */
(PID.TID 0000.0001)                   T
(PID.TID 0000.0001)     ;
(PID.TID 0000.0001) usingPCoords =  /* use p (or p*) vertical coordinate */
(PID.TID 0000.0001)                   F
(PID.TID 0000.0001)     ;
(PID.TID 0000.0001) usingZCoords =  /* use z (or z*) vertical coordinate */
(PID.TID 0000.0001)                   T
(PID.TID 0000.0001)     ;
(PID.TID 0000.0001) tRef =   /* Reference temperature profile ( oC or K ) */
(PID.TID 0000.0001)                 1.500000000000000E+01       /* K =  1 */
(PID.TID 0000.0001)     ;
(PID.TID 0000.0001) sRef =   /* Reference salinity profile ( psu ) */
(PID.TID 0000.0001)                 0.000000000000000E+00       /* K =  1 */
(PID.TID 0000.0001)     ;
(PID.TID 0000.0001) viscAh =   /* Lateral eddy viscosity ( m^2/s ) */
(PID.TID 0000.0001)                 0.000000000000000E+00
(PID.TID 0000.0001)     ;
(PID.TID 0000.0001) viscAhMax =   /* Maximum lateral eddy viscosity ( m^2/s ) */
(PID.TID 0000.0001)                 1.000000000000000E+21
(PID.TID 0000.0001)     ;
(PID.TID 0000.0001) viscAhGrid =   /* Grid dependent lateral eddy viscosity ( non-dim. ) */
(PID.TID 0000.0001)                 0.000000000000000E+00
(PID.TID 0000.0001)     ;
(PID.TID 0000.0001) useFullLeith =   /* Use Full Form of Leith Viscosity on/off flag*/
(PID.TID 0000.0001)                   F
(PID.TID 0000.0001)     ;
(PID.TID 0000.0001) useStrainTensionVisc =   /* Use StrainTension Form of Viscous Operator on/off flag*/
(PID.TID 0000.0001)                   F
(PID.TID 0000.0001)     ;
(PID.TID 0000.0001) useAreaViscLength =   /* Use area for visc length instead of geom. mean*/
(PID.TID 0000.0001)                   F
(PID.TID 0000.0001)     ;
(PID.TID 0000.0001) viscC2leith = /* Leith harmonic visc. factor (on grad(vort),non-dim.) */
(PID.TID 0000.0001)                 0.000000000000000E+00
(PID.TID 0000.0001)     ;
(PID.TID 0000.0001) viscC2leithD = /* Leith harmonic viscosity factor (on grad(div),non-dim.) */
(PID.TID 0000.0001)                 0.000000000000000E+00
(PID.TID 0000.0001)     ;
(PID.TID 0000.0001) viscC2smag =   /* Smagorinsky harmonic viscosity factor (non-dim.) */
(PID.TID 0000.0001)                 0.000000000000000E+00
(PID.TID 0000.0001)     ;
(PID.TID 0000.0001) viscA4 =   /* Lateral biharmonic viscosity ( m^4/s ) */
(PID.TID 0000.0001)                 0.000000000000000E+00
(PID.TID 0000.0001)     ;
(PID.TID 0000.0001) viscA4Max =   /* Maximum biharmonic viscosity ( m^2/s ) */
(PID.TID 0000.0001)                 1.000000000000000E+21
(PID.TID 0000.0001)     ;
(PID.TID 0000.0001) viscA4Grid =   /* Grid dependent biharmonic viscosity ( non-dim. ) */
(PID.TID 0000.0001)                 0.000000000000000E+00
(PID.TID 0000.0001)     ;
(PID.TID 0000.0001) viscC4leith = /* Leith biharm viscosity factor (on grad(vort), non-dim.) */
(PID.TID 0000.0001)                 0.000000000000000E+00
(PID.TID 0000.0001)     ;
(PID.TID 0000.0001) viscC4leithD = /* Leith biharm viscosity factor (on grad(div), non-dim.) */
(PID.TID 0000.0001)                 0.000000000000000E+00
(PID.TID 0000.0001)     ;
(PID.TID 0000.0001) viscC4Smag = /* Smagorinsky biharm viscosity factor (non-dim) */
(PID.TID 0000.0001)                 0.000000000000000E+00
(PID.TID 0000.0001)     ;
(PID.TID 0000.0001) no_slip_sides =  /* Viscous BCs: No-slip sides */
(PID.TID 0000.0001)                   F
(PID.TID 0000.0001)     ;
(PID.TID 0000.0001) sideDragFactor = /* side-drag scaling factor (non-dim) */
(PID.TID 0000.0001)                 2.000000000000000E+00
(PID.TID 0000.0001)     ;
(PID.TID 0000.0001) viscAr =   /* Vertical eddy viscosity ( m^2/s ) */
(PID.TID 0000.0001)                 0.000000000000000E+00
(PID.TID 0000.0001)     ;
(PID.TID 0000.0001) no_slip_bottom =  /* Viscous BCs: No-slip bottom */
(PID.TID 0000.0001)                   F
(PID.TID 0000.0001)     ;
(PID.TID 0000.0001) bottomDragLinear = /* linear bottom-drag coefficient ( m/s ) */
(PID.TID 0000.0001)                 0.000000000000000E+00
(PID.TID 0000.0001)     ;
(PID.TID 0000.0001) bottomDragQuadratic = /* quadratic bottom-drag coefficient (-) */
(PID.TID 0000.0001)                 0.000000000000000E+00
(PID.TID 0000.0001)     ;
(PID.TID 0000.0001) diffKhT =   /* Laplacian diffusion of heat laterally ( m^2/s ) */
(PID.TID 0000.0001)                 0.000000000000000E+00
(PID.TID 0000.0001)     ;
(PID.TID 0000.0001) diffK4T =   /* Biharmonic diffusion of heat laterally ( m^4/s ) */
(PID.TID 0000.0001)                 0.000000000000000E+00
(PID.TID 0000.0001)     ;
(PID.TID 0000.0001) diffKhS =   /* Laplacian diffusion of salt laterally ( m^2/s ) */
(PID.TID 0000.0001)                 0.000000000000000E+00
(PID.TID 0000.0001)     ;
(PID.TID 0000.0001) diffK4S =   /* Biharmonic diffusion of salt laterally ( m^4/s ) */
(PID.TID 0000.0001)                 0.000000000000000E+00
(PID.TID 0000.0001)     ;
(PID.TID 0000.0001) diffKrNrT = /* vertical profile of vertical diffusion of Temp ( m^2/s )*/
(PID.TID 0000.0001)                 0.000000000000000E+00       /* K =  1 */
(PID.TID 0000.0001)     ;
(PID.TID 0000.0001) diffKrNrS = /* vertical profile of vertical diffusion of Salt ( m^2/s )*/
(PID.TID 0000.0001)                 0.000000000000000E+00       /* K =  1 */
(PID.TID 0000.0001)     ;
(PID.TID 0000.0001) diffKrBL79surf = /* Surface diffusion for Bryan and Lewis 79 ( m^2/s ) */
(PID.TID 0000.0001)                 0.000000000000000E+00
(PID.TID 0000.0001)     ;
(PID.TID 0000.0001) diffKrBL79deep = /* Deep diffusion for Bryan and Lewis 1979 ( m^2/s ) */
(PID.TID 0000.0001)                 0.000000000000000E+00
(PID.TID 0000.0001)     ;
(PID.TID 0000.0001) diffKrBL79scl = /* Depth scale for Bryan and Lewis 1979 ( m ) */
(PID.TID 0000.0001)                 2.000000000000000E+02
(PID.TID 0000.0001)     ;
(PID.TID 0000.0001) diffKrBL79Ho = /* Turning depth for Bryan and Lewis 1979 ( m ) */
(PID.TID 0000.0001)                -2.000000000000000E+03
(PID.TID 0000.0001)     ;
(PID.TID 0000.0001) ivdc_kappa = /* Implicit Vertical Diffusivity for Convection ( m^2/s ) */
(PID.TID 0000.0001)                 0.000000000000000E+00
(PID.TID 0000.0001)     ;
(PID.TID 0000.0001) hMixCriteria=  /* Criteria for mixed-layer diagnostic */
(PID.TID 0000.0001)                -8.000000000000000E-01
(PID.TID 0000.0001)     ;
(PID.TID 0000.0001) dRhoSmall=  /* Parameter for mixed-layer diagnostic */
(PID.TID 0000.0001)                 1.000000000000000E-06
(PID.TID 0000.0001)     ;
(PID.TID 0000.0001) hMixSmooth=  /* Smoothing parameter for mixed-layer diagnostic */
(PID.TID 0000.0001)                 0.000000000000000E+00
(PID.TID 0000.0001)     ;
(PID.TID 0000.0001) eosType =  /* Type of Equation of State */
(PID.TID 0000.0001)               'LINEAR'
(PID.TID 0000.0001)     ;
(PID.TID 0000.0001) tAlpha =   /* Linear EOS thermal expansion coefficient ( 1/oC ) */
(PID.TID 0000.0001)                 2.000000000000000E-04
(PID.TID 0000.0001)     ;
(PID.TID 0000.0001) sBeta =   /* Linear EOS haline contraction coefficient ( 1/psu ) */
(PID.TID 0000.0001)                 7.400000000000000E-04
(PID.TID 0000.0001)     ;
(PID.TID 0000.0001) rhonil =   /* Reference density ( kg/m^3 ) */
(PID.TID 0000.0001)                 1.000000000000000E+03
(PID.TID 0000.0001)     ;
(PID.TID 0000.0001) rhoConst =   /* Reference density ( kg/m^3 ) */
(PID.TID 0000.0001)                 1.000000000000000E+03
(PID.TID 0000.0001)     ;
(PID.TID 0000.0001) rhoFacC = /* normalized Reference density @ cell-Center (-) */
(PID.TID 0000.0001)                 1.000000000000000E+00       /* K =  1 */
(PID.TID 0000.0001)     ;
(PID.TID 0000.0001) rhoFacF = /* normalized Reference density @ W-Interface (-) */
(PID.TID 0000.0001)     2 @  1.000000000000000E+00              /* K =  1:  2 */
(PID.TID 0000.0001)     ;
(PID.TID 0000.0001) rhoConstFresh =   /* Reference density ( kg/m^3 ) */
(PID.TID 0000.0001)                 1.000000000000000E+03
(PID.TID 0000.0001)     ;
(PID.TID 0000.0001) gravity =   /* Gravitational acceleration ( m/s^2 ) */
(PID.TID 0000.0001)                 9.818400000000000E+00
(PID.TID 0000.0001)     ;
(PID.TID 0000.0001) gBaro =   /* Barotropic gravity ( m/s^2 ) */
(PID.TID 0000.0001)                 9.818400000000000E+00
(PID.TID 0000.0001)     ;
(PID.TID 0000.0001) rotationPeriod =   /* Rotation Period ( s ) */
(PID.TID 0000.0001)                 8.616400000000000E+04
(PID.TID 0000.0001)     ;
(PID.TID 0000.0001) omega =   /* Angular velocity ( rad/s ) */
(PID.TID 0000.0001)                 7.292123516990375E-05
(PID.TID 0000.0001)     ;
(PID.TID 0000.0001) f0 =   /* Reference coriolis parameter ( 1/s ) */
(PID.TID 0000.0001)                 1.000000000000000E-04
(PID.TID 0000.0001)     ;
(PID.TID 0000.0001) beta =   /* Beta ( 1/(m.s) ) */
(PID.TID 0000.0001)                 9.999999999999999E-12
(PID.TID 0000.0001)     ;
(PID.TID 0000.0001) freeSurfFac =   /* Implicit free surface factor */
(PID.TID 0000.0001)                 1.000000000000000E+00
(PID.TID 0000.0001)     ;
(PID.TID 0000.0001) implicitFreeSurface =   /* Implicit free surface on/off flag */
(PID.TID 0000.0001)                   T
(PID.TID 0000.0001)     ;
(PID.TID 0000.0001) rigidLid =   /* Rigid lid on/off flag */
(PID.TID 0000.0001)                   F
(PID.TID 0000.0001)     ;
(PID.TID 0000.0001) implicSurfPress =   /* Surface Pressure implicit factor (0-1)*/
(PID.TID 0000.0001)                 5.000000000000000E-01
(PID.TID 0000.0001)     ;
(PID.TID 0000.0001) implicDiv2Dflow =   /* Barot. Flow Div. implicit factor (0-1)*/
(PID.TID 0000.0001)                 5.000000000000000E-01
(PID.TID 0000.0001)     ;
(PID.TID 0000.0001) exactConserv =   /* Exact Volume Conservation on/off flag*/
(PID.TID 0000.0001)                   T
(PID.TID 0000.0001)     ;
(PID.TID 0000.0001) linFSConserveTr =   /* Tracer correction for Lin Free Surface on/off flag*/
(PID.TID 0000.0001)                   F
(PID.TID 0000.0001)     ;
(PID.TID 0000.0001) uniformLin_PhiSurf =   /* use uniform Bo_surf on/off flag*/
(PID.TID 0000.0001)                   T
(PID.TID 0000.0001)     ;
(PID.TID 0000.0001) nonlinFreeSurf =   /* Non-linear Free Surf. options (-1,0,1,2,3)*/
(PID.TID 0000.0001)                       0
(PID.TID 0000.0001)     ;
(PID.TID 0000.0001)      -1,0= Off ; 1,2,3= On, 2=+rescale gU,gV, 3=+update cg2d solv.
(PID.TID 0000.0001) hFacInf =   /* lower threshold for hFac (nonlinFreeSurf only)*/
(PID.TID 0000.0001)                 2.000000000000000E-01
(PID.TID 0000.0001)     ;
(PID.TID 0000.0001) hFacSup =   /* upper threshold for hFac (nonlinFreeSurf only)*/
(PID.TID 0000.0001)                 2.000000000000000E+00
(PID.TID 0000.0001)     ;
(PID.TID 0000.0001) select_rStar = /* r* Vertical coord. options (=0 r coord.; > 0 uses r*) */
(PID.TID 0000.0001)                       0
(PID.TID 0000.0001)     ;
(PID.TID 0000.0001) selectAddFluid = /* option for mass source/sink of fluid (=0: off) */
(PID.TID 0000.0001)                       0
(PID.TID 0000.0001)     ;
(PID.TID 0000.0001) useRealFreshWaterFlux = /* Real Fresh Water Flux on/off flag*/
(PID.TID 0000.0001)                   F
(PID.TID 0000.0001)     ;
(PID.TID 0000.0001) temp_EvPrRn = /* Temp. of Evap/Prec/R (UNSET=use local T)(oC)*/
(PID.TID 0000.0001)                 1.234567000000000E+05
(PID.TID 0000.0001)     ;
(PID.TID 0000.0001) salt_EvPrRn = /* Salin. of Evap/Prec/R (UNSET=use local S)(ppt)*/
(PID.TID 0000.0001)                 0.000000000000000E+00
(PID.TID 0000.0001)     ;
(PID.TID 0000.0001) convertFW2Salt = /* convert F.W. Flux to Salt Flux (-1=use local S)(ppt)*/
(PID.TID 0000.0001)                 3.500000000000000E+01
(PID.TID 0000.0001)     ;
(PID.TID 0000.0001) use3Dsolver = /* use 3-D pressure solver on/off flag */
(PID.TID 0000.0001)                   F
(PID.TID 0000.0001)     ;
(PID.TID 0000.0001) nonHydrostatic =  /* Non-Hydrostatic on/off flag */
(PID.TID 0000.0001)                   F
(PID.TID 0000.0001)     ;
(PID.TID 0000.0001) nh_Am2 = /* Non-Hydrostatic terms scaling factor */
(PID.TID 0000.0001)                 1.000000000000000E+00
(PID.TID 0000.0001)     ;
(PID.TID 0000.0001) quasiHydrostatic = /* Quasi-Hydrostatic on/off flag */
(PID.TID 0000.0001)                   F
(PID.TID 0000.0001)     ;
(PID.TID 0000.0001) momStepping =  /* Momentum equation on/off flag */
(PID.TID 0000.0001)                   T
(PID.TID 0000.0001)     ;
(PID.TID 0000.0001) vectorInvariantMomentum= /* Vector-Invariant Momentum on/off */
(PID.TID 0000.0001)                   F
(PID.TID 0000.0001)     ;
(PID.TID 0000.0001) momAdvection =  /* Momentum advection on/off flag */
(PID.TID 0000.0001)                   F
(PID.TID 0000.0001)     ;
(PID.TID 0000.0001) momViscosity =  /* Momentum viscosity on/off flag */
(PID.TID 0000.0001)                   T
(PID.TID 0000.0001)     ;
(PID.TID 0000.0001) momImplVertAdv =/* Momentum implicit vert. advection on/off*/
(PID.TID 0000.0001)                   F
(PID.TID 0000.0001)     ;
(PID.TID 0000.0001) implicitViscosity = /* Implicit viscosity on/off flag */
(PID.TID 0000.0001)                   F
(PID.TID 0000.0001)     ;
(PID.TID 0000.0001) metricTerms =  /* metric-Terms on/off flag */
(PID.TID 0000.0001)                   F
(PID.TID 0000.0001)     ;
(PID.TID 0000.0001) useNHMTerms = /* Non-Hydrostatic Metric-Terms on/off */
(PID.TID 0000.0001)                   F
(PID.TID 0000.0001)     ;
(PID.TID 0000.0001) useConstantF =  /* use Constant f0 Coriolis flag */
(PID.TID 0000.0001)                   F
(PID.TID 0000.0001)     ;
(PID.TID 0000.0001) useBetaPlaneF = /* use Beta-Plane Coriolis flag */
(PID.TID 0000.0001)                   F
(PID.TID 0000.0001)     ;
(PID.TID 0000.0001) useSphereF  =   /* use Spherical Coriolis flag */
(PID.TID 0000.0001)                   T
(PID.TID 0000.0001)     ;
(PID.TID 0000.0001) use3dCoriolis = /* 3-D Coriolis on/off flag */
(PID.TID 0000.0001)                   F
(PID.TID 0000.0001)     ;
(PID.TID 0000.0001) useCoriolis =  /* Coriolis on/off flag */
(PID.TID 0000.0001)                   T
(PID.TID 0000.0001)     ;
(PID.TID 0000.0001) useCDscheme =  /* CD scheme on/off flag */
(PID.TID 0000.0001)                   F
(PID.TID 0000.0001)     ;
(PID.TID 0000.0001) useJamartWetPoints= /* Coriolis WetPoints method flag */
(PID.TID 0000.0001)                   F
(PID.TID 0000.0001)     ;
(PID.TID 0000.0001) useJamartMomAdv= /* V.I. Non-linear terms Jamart flag */
(PID.TID 0000.0001)                   F
(PID.TID 0000.0001)     ;
(PID.TID 0000.0001) useAbsVorticity= /* Work with f+zeta in Coriolis */
(PID.TID 0000.0001)                   F
(PID.TID 0000.0001)     ;
(PID.TID 0000.0001) selectVortScheme= /* Scheme selector for Vorticity-Term */
(PID.TID 0000.0001)               123456789
(PID.TID 0000.0001)    = 0 : enstrophy (Shallow-Water Eq.) conserving scheme by Sadourny, JAS 75
(PID.TID 0000.0001)    = 1 : same as 0 with modified hFac
(PID.TID 0000.0001)    = 2 : energy conserving scheme (used by Sadourny in JAS 75 paper)
(PID.TID 0000.0001)    = 3 : energy (general) and enstrophy (2D, nonDiv.) conserving scheme
(PID.TID 0000.0001)          from Sadourny (Burridge & Haseler, ECMWF Rep.4, 1977)
(PID.TID 0000.0001)     ;
(PID.TID 0000.0001) upwindVorticity= /* Upwind bias vorticity flag */
(PID.TID 0000.0001)                   F
(PID.TID 0000.0001)     ;
(PID.TID 0000.0001) highOrderVorticity= /* High order interp. of vort. flag */
(PID.TID 0000.0001)                   F
(PID.TID 0000.0001)     ;
(PID.TID 0000.0001) upwindShear= /* Upwind vertical Shear advection flag */
(PID.TID 0000.0001)                   F
(PID.TID 0000.0001)     ;
(PID.TID 0000.0001) selectKEscheme= /* Kinetic Energy scheme selector */
(PID.TID 0000.0001)                       0
(PID.TID 0000.0001)     ;
(PID.TID 0000.0001) momForcing =  /* Momentum forcing on/off flag */
(PID.TID 0000.0001)                   T
(PID.TID 0000.0001)     ;
(PID.TID 0000.0001) momPressureForcing =  /* Momentum pressure term on/off flag */
(PID.TID 0000.0001)                   T
(PID.TID 0000.0001)     ;
(PID.TID 0000.0001) implicitIntGravWave= /* Implicit Internal Gravity Wave flag */
(PID.TID 0000.0001)                   F
(PID.TID 0000.0001)     ;
(PID.TID 0000.0001) staggerTimeStep =   /* Stagger time stepping on/off flag */
(PID.TID 0000.0001)                   F
(PID.TID 0000.0001)     ;
(PID.TID 0000.0001) multiDimAdvection =   /* enable/disable Multi-Dim Advection */
(PID.TID 0000.0001)                   T
(PID.TID 0000.0001)     ;
(PID.TID 0000.0001) useMultiDimAdvec =   /* Multi-Dim Advection is/is-not used */
(PID.TID 0000.0001)                   F
(PID.TID 0000.0001)     ;
(PID.TID 0000.0001) implicitDiffusion =/* Implicit Diffusion on/off flag */
(PID.TID 0000.0001)                   F
(PID.TID 0000.0001)     ;
(PID.TID 0000.0001) tempStepping =  /* Temperature equation on/off flag */
(PID.TID 0000.0001)                   F
(PID.TID 0000.0001)     ;
(PID.TID 0000.0001) tempAdvection=  /* Temperature advection on/off flag */
(PID.TID 0000.0001)                   F
(PID.TID 0000.0001)     ;
(PID.TID 0000.0001) tempImplVertAdv =/* Temp. implicit vert. advection on/off */
(PID.TID 0000.0001)                   F
(PID.TID 0000.0001)     ;
(PID.TID 0000.0001) tempForcing  =  /* Temperature forcing on/off flag */
(PID.TID 0000.0001)                   F
(PID.TID 0000.0001)     ;
(PID.TID 0000.0001) tempIsActiveTr = /* Temp. is a dynamically Active Tracer */
(PID.TID 0000.0001)                   F
(PID.TID 0000.0001)     ;
(PID.TID 0000.0001) saltStepping =  /* Salinity equation on/off flag */
(PID.TID 0000.0001)                   F
(PID.TID 0000.0001)     ;
(PID.TID 0000.0001) saltAdvection=  /* Salinity advection on/off flag */
(PID.TID 0000.0001)                   F
(PID.TID 0000.0001)     ;
(PID.TID 0000.0001) saltImplVertAdv =/* Sali. implicit vert. advection on/off */
(PID.TID 0000.0001)                   F
(PID.TID 0000.0001)     ;
(PID.TID 0000.0001) saltForcing  =  /* Salinity forcing on/off flag */
(PID.TID 0000.0001)                   F
(PID.TID 0000.0001)     ;
(PID.TID 0000.0001) saltIsActiveTr = /* Salt  is a dynamically Active Tracer */
(PID.TID 0000.0001)                   F
(PID.TID 0000.0001)     ;
(PID.TID 0000.0001)  readBinaryPrec = /* Precision used for reading binary files */
(PID.TID 0000.0001)                      64
(PID.TID 0000.0001)     ;
(PID.TID 0000.0001) writeBinaryPrec = /* Precision used for writing binary files */
(PID.TID 0000.0001)                      64
(PID.TID 0000.0001)     ;
(PID.TID 0000.0001)  globalFiles = /* write "global" (=not per tile) files */
(PID.TID 0000.0001)                   F
(PID.TID 0000.0001)     ;
(PID.TID 0000.0001)  useSingleCpuIO = /* only master MPI process does I/O */
(PID.TID 0000.0001)                   T
(PID.TID 0000.0001)     ;
(PID.TID 0000.0001)  debugMode  =  /* Debug Mode on/off flag */
(PID.TID 0000.0001)                   F
(PID.TID 0000.0001)     ;
(PID.TID 0000.0001)    debLevA  =  /* 1rst level of debugging */
(PID.TID 0000.0001)                       1
(PID.TID 0000.0001)     ;
(PID.TID 0000.0001)    debLevB  =  /* 2nd  level of debugging */
(PID.TID 0000.0001)                       2
(PID.TID 0000.0001)     ;
(PID.TID 0000.0001)  debugLevel =  /* select debugging level */
(PID.TID 0000.0001)                       1
(PID.TID 0000.0001)     ;
(PID.TID 0000.0001) //
(PID.TID 0000.0001) // Elliptic solver(s) paramters ( PARM02 in namelist )
(PID.TID 0000.0001) //
(PID.TID 0000.0001) cg2dMaxIters =   /* Upper limit on 2d con. grad iterations  */
(PID.TID 0000.0001)                     600
(PID.TID 0000.0001)     ;
(PID.TID 0000.0001) cg2dChkResFreq =   /* 2d con. grad convergence test frequency */
(PID.TID 0000.0001)                       1
(PID.TID 0000.0001)     ;
(PID.TID 0000.0001) cg2dTargetResidual =   /* 2d con. grad target residual  */
(PID.TID 0000.0001)                 1.000000000000000E-13
(PID.TID 0000.0001)     ;
(PID.TID 0000.0001) cg2dTargetResWunit =   /* CG2d target residual [W units] */
(PID.TID 0000.0001)                -1.000000000000000E+00
(PID.TID 0000.0001)     ;
(PID.TID 0000.0001) cg2dPreCondFreq =   /* Freq. for updating cg2d preconditioner */
(PID.TID 0000.0001)                       1
(PID.TID 0000.0001)     ;
(PID.TID 0000.0001) //
(PID.TID 0000.0001) // Time stepping paramters ( PARM03 in namelist )
(PID.TID 0000.0001) //
(PID.TID 0000.0001) deltaTmom =   /* Momentum equation timestep ( s ) */
(PID.TID 0000.0001)                 9.000000000000000E+02
(PID.TID 0000.0001)     ;
(PID.TID 0000.0001) deltaTfreesurf =   /* FreeSurface equation timestep ( s ) */
(PID.TID 0000.0001)                 9.000000000000000E+02
(PID.TID 0000.0001)     ;
(PID.TID 0000.0001) dTtracerLev =   /* Tracer equation timestep ( s ) */
(PID.TID 0000.0001)                 9.000000000000000E+02       /* K =  1 */
(PID.TID 0000.0001)     ;
(PID.TID 0000.0001) deltaTClock  =   /* Model clock timestep ( s ) */
(PID.TID 0000.0001)                 9.000000000000000E+02
(PID.TID 0000.0001)     ;
(PID.TID 0000.0001) cAdjFreq =   /* Convective adjustment interval ( s ) */
(PID.TID 0000.0001)                 0.000000000000000E+00
(PID.TID 0000.0001)     ;
(PID.TID 0000.0001) momForcingOutAB = /* =1: take Momentum Forcing out of Adams-Bash. stepping */
(PID.TID 0000.0001)                       0
(PID.TID 0000.0001)     ;
(PID.TID 0000.0001) tracForcingOutAB = /* =1: take T,S,pTr Forcing out of Adams-Bash. stepping */
(PID.TID 0000.0001)                       0
(PID.TID 0000.0001)     ;
(PID.TID 0000.0001) momDissip_In_AB = /* put Dissipation Tendency in Adams-Bash. stepping */
(PID.TID 0000.0001)                   T
(PID.TID 0000.0001)     ;
(PID.TID 0000.0001) doAB_onGtGs = /* apply AB on Tendencies (rather than on T,S)*/
(PID.TID 0000.0001)                   T
(PID.TID 0000.0001)     ;
(PID.TID 0000.0001) abEps =   /* Adams-Bashforth-2 stabilizing weight */
(PID.TID 0000.0001)                 1.000000000000000E-01
(PID.TID 0000.0001)     ;
(PID.TID 0000.0001) pickupStrictlyMatch= /* stop if pickup do not strictly match */
(PID.TID 0000.0001)                   T
(PID.TID 0000.0001)     ;
(PID.TID 0000.0001) nIter0 =   /* Run starting timestep number  */
(PID.TID 0000.0001)                       0
(PID.TID 0000.0001)     ;
(PID.TID 0000.0001) nTimeSteps =   /* Number of timesteps */
(PID.TID 0000.0001)                      24
(PID.TID 0000.0001)     ;
(PID.TID 0000.0001) baseTime =   /* Model base time ( s ). */
(PID.TID 0000.0001)                 0.000000000000000E+00
(PID.TID 0000.0001)     ;
(PID.TID 0000.0001) startTime =   /* Run start time ( s ). */
(PID.TID 0000.0001)                 0.000000000000000E+00
(PID.TID 0000.0001)     ;
(PID.TID 0000.0001) endTime =   /* Integration ending time ( s ). */
(PID.TID 0000.0001)                 2.160000000000000E+04
(PID.TID 0000.0001)     ;
(PID.TID 0000.0001) pChkPtFreq =   /* Permanent restart/checkpoint file interval ( s ). */
(PID.TID 0000.0001)                 0.000000000000000E+00
(PID.TID 0000.0001)     ;
(PID.TID 0000.0001) chkPtFreq =   /* Rolling restart/checkpoint file interval ( s ). */
(PID.TID 0000.0001)                 0.000000000000000E+00
(PID.TID 0000.0001)     ;
(PID.TID 0000.0001) pickup_write_mdsio =   /* Model IO flag. */
(PID.TID 0000.0001)                   T
(PID.TID 0000.0001)     ;
(PID.TID 0000.0001) pickup_read_mdsio =   /* Model IO flag. */
(PID.TID 0000.0001)                   T
(PID.TID 0000.0001)     ;
(PID.TID 0000.0001) pickup_write_immed =   /* Model IO flag. */
(PID.TID 0000.0001)                   F
(PID.TID 0000.0001)     ;
(PID.TID 0000.0001) writePickupAtEnd =   /* Model IO flag. */
(PID.TID 0000.0001)                   T
(PID.TID 0000.0001)     ;
(PID.TID 0000.0001) dumpFreq =   /* Model state write out interval ( s ). */
(PID.TID 0000.0001)                 1.080000000000000E+04
(PID.TID 0000.0001)     ;
(PID.TID 0000.0001) dumpInitAndLast= /* write out Initial & Last iter. model state */
(PID.TID 0000.0001)                   T
(PID.TID 0000.0001)     ;
(PID.TID 0000.0001) snapshot_mdsio =   /* Model IO flag. */
(PID.TID 0000.0001)                   T
(PID.TID 0000.0001)     ;
(PID.TID 0000.0001) monitorFreq =   /* Monitor output interval ( s ). */
(PID.TID 0000.0001)                 1.000000000000000E+00
(PID.TID 0000.0001)     ;
(PID.TID 0000.0001) monitorSelect = /* select group of variables to monitor */
(PID.TID 0000.0001)                       3
(PID.TID 0000.0001)     ;
(PID.TID 0000.0001) monitor_stdio =   /* Model IO flag. */
(PID.TID 0000.0001)                   T
(PID.TID 0000.0001)     ;
(PID.TID 0000.0001) externForcingPeriod =   /* forcing period (s) */
(PID.TID 0000.0001)                 0.000000000000000E+00
(PID.TID 0000.0001)     ;
(PID.TID 0000.0001) externForcingCycle =   /* period of the cyle (s). */
(PID.TID 0000.0001)                 0.000000000000000E+00
(PID.TID 0000.0001)     ;
(PID.TID 0000.0001) tauThetaClimRelax =   /* relaxation time scale (s) */
(PID.TID 0000.0001)                 0.000000000000000E+00
(PID.TID 0000.0001)     ;
(PID.TID 0000.0001) tauSaltClimRelax =   /* relaxation time scale (s) */
(PID.TID 0000.0001)                 0.000000000000000E+00
(PID.TID 0000.0001)     ;
(PID.TID 0000.0001) latBandClimRelax =   /* max. Lat. where relaxation */
(PID.TID 0000.0001)                 1.800000000000000E+02
(PID.TID 0000.0001)     ;
(PID.TID 0000.0001) //
(PID.TID 0000.0001) // Gridding paramters ( PARM04 in namelist )
(PID.TID 0000.0001) //
(PID.TID 0000.0001) usingCartesianGrid = /* Cartesian coordinates flag ( True/False ) */
(PID.TID 0000.0001)                   F
(PID.TID 0000.0001)     ;
(PID.TID 0000.0001) usingCylindricalGrid = /* Cylindrical coordinates flag ( True/False ) */
(PID.TID 0000.0001)                   F
(PID.TID 0000.0001)     ;
(PID.TID 0000.0001) usingSphericalPolarGrid = /* Spherical coordinates flag ( True/False ) */
(PID.TID 0000.0001)                   F
(PID.TID 0000.0001)     ;
(PID.TID 0000.0001) usingCurvilinearGrid = /* Curvilinear coordinates flag ( True/False ) */
(PID.TID 0000.0001)                   T
(PID.TID 0000.0001)     ;
(PID.TID 0000.0001) Ro_SeaLevel = /* r(1) ( units of r ==  m ) */
(PID.TID 0000.0001)                 0.000000000000000E+00
(PID.TID 0000.0001)     ;
(PID.TID 0000.0001) rkSign =   /* index orientation relative to vertical coordinate */
(PID.TID 0000.0001)                -1.000000000000000E+00
(PID.TID 0000.0001)     ;
(PID.TID 0000.0001) gravitySign = /* gravity orientation relative to vertical coordinate */
(PID.TID 0000.0001)                -1.000000000000000E+00
(PID.TID 0000.0001)     ;
(PID.TID 0000.0001) mass2rUnit = /* convert mass per unit area [kg/m2] to r-units [m] */
(PID.TID 0000.0001)                 1.000000000000000E-03
(PID.TID 0000.0001)     ;
(PID.TID 0000.0001) rUnit2mass = /* convert r-units [m] to mass per unit area [kg/m2] */
(PID.TID 0000.0001)                 1.000000000000000E+03
(PID.TID 0000.0001)     ;
(PID.TID 0000.0001) drC =   /* C spacing ( units of r ) */
(PID.TID 0000.0001)                 6.830000000000000E+02       /* K =  1 */
(PID.TID 0000.0001)     ;
(PID.TID 0000.0001) drF =   /* W spacing ( units of r ) */
(PID.TID 0000.0001)                 1.366000000000000E+03       /* K =  1 */
(PID.TID 0000.0001)     ;
(PID.TID 0000.0001) delX =   /* U spacing ( m - cartesian, degrees - spherical ) */
(PID.TID 0000.0001)   768 @  1.234567000000000E+05              /* I =  1:768 */
(PID.TID 0000.0001)     ;
(PID.TID 0000.0001) delY =   /* V spacing ( m - cartesian, degrees - spherical ) */
(PID.TID 0000.0001)     8 @  1.234567000000000E+05              /* J =  1:  8 */
(PID.TID 0000.0001)     ;
(PID.TID 0000.0001) xgOrigin = /* X-axis origin of West  edge (cartesian: m, lat-lon: deg.) */
(PID.TID 0000.0001)                 0.000000000000000E+00
(PID.TID 0000.0001)     ;
(PID.TID 0000.0001) ygOrigin = /* Y-axis origin of South edge (cartesian: m, lat-lon: deg.) */
(PID.TID 0000.0001)                 0.000000000000000E+00
(PID.TID 0000.0001)     ;
(PID.TID 0000.0001) rSphere =  /* Radius ( ignored - cartesian, m - spherical ) */
(PID.TID 0000.0001)                 6.370000000000000E+06
(PID.TID 0000.0001)     ;
(PID.TID 0000.0001) deepAtmosphere = /* Deep/Shallow Atmosphere flag (True/False) */
(PID.TID 0000.0001)                   F
(PID.TID 0000.0001)     ;
(PID.TID 0000.0001) xC =  /* xC(:,1,:,1) : P-point X coord ( deg. or m if cartesian) */
(PID.TID 0000.0001)                -4.439521994760536E+01,      /* I =  1 */
(PID.TID 0000.0001)                -4.295641272275883E+01,      /* I =  2 */
(PID.TID 0000.0001)                -4.122055553388957E+01,      /* I =  3 */
(PID.TID 0000.0001)      . . .
(PID.TID 0000.0001)                 1.285456338445348E+02,      /* I =190 */
(PID.TID 0000.0001)                 1.311377991206438E+02,      /* I =191 */
(PID.TID 0000.0001)                 1.337143719673266E+02,      /* I =192 */
(PID.TID 0000.0001)                 4.635509675007168E+01,      /* I =193 */
(PID.TID 0000.0001)                 4.906731228843647E+01,      /* I =194 */
(PID.TID 0000.0001)                 5.178550688214704E+01,      /* I =195 */
(PID.TID 0000.0001)      . . .
(PID.TID 0000.0001)                -1.469094754966009E+02,      /* I =382 */
(PID.TID 0000.0001)                -1.484162650485831E+02,      /* I =383 */
(PID.TID 0000.0001)                -1.497001816778676E+02,      /* I =384 */
(PID.TID 0000.0001)                 1.356047800523947E+02,      /* I =385 */
(PID.TID 0000.0001)                 1.358367907661329E+02,      /* I =386 */
(PID.TID 0000.0001)                 1.359720382181193E+02,      /* I =387 */
(PID.TID 0000.0001)      . . .
(PID.TID 0000.0001)                -1.146477754871237E+02,      /* I =574 */
(PID.TID 0000.0001)                -1.153780070172414E+02,      /* I =575 */
(PID.TID 0000.0001)                -1.162493222302829E+02,      /* I =576 */
(PID.TID 0000.0001)                -8.812739148696656E+01,      /* I =577 */
(PID.TID 0000.0001)                -8.820362659721324E+01,      /* I =578 */
(PID.TID 0000.0001)                -8.826768106944316E+01,      /* I =579 */
(PID.TID 0000.0001)      . . .
(PID.TID 0000.0001)                 5.690947549660092E+01,      /* I =766 */
(PID.TID 0000.0001)                 5.841626504858314E+01,      /* I =767 */
(PID.TID 0000.0001)                 5.970018167786760E+01       /* I =768 */
(PID.TID 0000.0001)     ;
(PID.TID 0000.0001) yC =  /* yC(1,:,1,:) : P-point Y coord ( deg. or m if cartesian) */
(PID.TID 0000.0001)                -3.497677942598243E+01,      /* J =  1 */
(PID.TID 0000.0001)                -3.374005967394886E+01,      /* J =  2 */
(PID.TID 0000.0001)                -3.220655175667454E+01,      /* J =  3 */
(PID.TID 0000.0001)                -3.045756348838641E+01,      /* J =  4 */
(PID.TID 0000.0001)                -2.853728129852918E+01,      /* J =  5 */
(PID.TID 0000.0001)                -2.647426640173173E+01,      /* J =  6 */
(PID.TID 0000.0001)                -2.428936657094636E+01,      /* J =  7 */
(PID.TID 0000.0001)                -2.199915808312262E+01       /* J =  8 */
(PID.TID 0000.0001)     ;
(PID.TID 0000.0001) rcoord =   /* P-point R coordinate (  units of r ) */
(PID.TID 0000.0001)                -6.830000000000000E+02       /* K =  1 */
(PID.TID 0000.0001)     ;
(PID.TID 0000.0001) rF =   /* W-Interf. R coordinate (  units of r ) */
(PID.TID 0000.0001)                 0.000000000000000E+00,      /* K =  1 */
(PID.TID 0000.0001)                -1.366000000000000E+03       /* K =  2 */
(PID.TID 0000.0001)     ;
(PID.TID 0000.0001) deepFacC = /* deep-model grid factor @ cell-Center (-) */
(PID.TID 0000.0001)                 1.000000000000000E+00       /* K =  1 */
(PID.TID 0000.0001)     ;
(PID.TID 0000.0001) deepFacF = /* deep-model grid factor @ W-Interface (-) */
(PID.TID 0000.0001)     2 @  1.000000000000000E+00              /* K =  1:  2 */
(PID.TID 0000.0001)     ;
(PID.TID 0000.0001) rVel2wUnit = /* convert units: rVel -> wSpeed (=1 if z-coord)*/
(PID.TID 0000.0001)     2 @  1.000000000000000E+00              /* K =  1:  2 */
(PID.TID 0000.0001)     ;
(PID.TID 0000.0001) wUnit2rVel = /* convert units: wSpeed -> rVel (=1 if z-coord)*/
(PID.TID 0000.0001)     2 @  1.000000000000000E+00              /* K =  1:  2 */
(PID.TID 0000.0001)     ;
(PID.TID 0000.0001) dBdrRef = /* Vertical gradient of reference boyancy [(m/s/r)^2)] */
(PID.TID 0000.0001)                 0.000000000000000E+00       /* K =  1 */
(PID.TID 0000.0001)     ;
(PID.TID 0000.0001) rotateGrid = /* use rotated grid ( True/False ) */
(PID.TID 0000.0001)                   F
(PID.TID 0000.0001)     ;
(PID.TID 0000.0001) phiEuler = /* Euler angle, rotation about original z-coordinate [rad] */
(PID.TID 0000.0001)                 0.000000000000000E+00
(PID.TID 0000.0001)     ;
(PID.TID 0000.0001) thetaEuler = /* Euler angle, rotation about new x-coordinate [rad] */
(PID.TID 0000.0001)                 0.000000000000000E+00
(PID.TID 0000.0001)     ;
(PID.TID 0000.0001) psiEuler = /* Euler angle, rotation about new z-coordinate [rad] */
(PID.TID 0000.0001)                 0.000000000000000E+00
(PID.TID 0000.0001)     ;
(PID.TID 0000.0001) dxF =  /* dxF(:,1,:,1) ( units: m ) */
(PID.TID 0000.0001)                 1.202082051331828E+05,      /* I =  1 */
(PID.TID 0000.0001)                 1.563594089971120E+05,      /* I =  2 */
(PID.TID 0000.0001)                 1.835530058121492E+05,      /* I =  3 */
(PID.TID 0000.0001)      . . .
(PID.TID 0000.0001)                 2.726579649676481E+05,      /* I =190 */
(PID.TID 0000.0001)                 2.705231413075805E+05,      /* I =191 */
(PID.TID 0000.0001)                 2.694110134598581E+05,      /* I =192 */
(PID.TID 0000.0001)                 3.012844832048790E+05,      /* I =193 */
(PID.TID 0000.0001)                 3.017314519159184E+05,      /* I =194 */
(PID.TID 0000.0001)                 3.026061571839506E+05,      /* I =195 */
(PID.TID 0000.0001)      . . .
(PID.TID 0000.0001)                 2.640534701478141E+05,      /* I =382 */
(PID.TID 0000.0001)                 2.613928019944271E+05,      /* I =383 */
(PID.TID 0000.0001)                 2.599949918261881E+05,      /* I =384 */
(PID.TID 0000.0001)                 1.202082051331828E+05,      /* I =385 */
(PID.TID 0000.0001)                 1.563594089971120E+05,      /* I =386 */
(PID.TID 0000.0001)                 1.835530058121492E+05,      /* I =387 */
(PID.TID 0000.0001)      . . .
(PID.TID 0000.0001)                 2.726579649676481E+05,      /* I =574 */
(PID.TID 0000.0001)                 2.705231413075805E+05,      /* I =575 */
(PID.TID 0000.0001)                 2.694110134598581E+05,      /* I =576 */
(PID.TID 0000.0001)                 3.012844832048790E+05,      /* I =577 */
(PID.TID 0000.0001)                 3.017314519159184E+05,      /* I =578 */
(PID.TID 0000.0001)                 3.026061571839506E+05,      /* I =579 */
(PID.TID 0000.0001)      . . .
(PID.TID 0000.0001)                 2.640534701478141E+05,      /* I =766 */
(PID.TID 0000.0001)                 2.613928019944271E+05,      /* I =767 */
(PID.TID 0000.0001)                 2.599949918261881E+05       /* I =768 */
(PID.TID 0000.0001)     ;
(PID.TID 0000.0001) dxF =  /* dxF(1,:,1,:) ( units: m ) */
(PID.TID 0000.0001)                 1.202082051331828E+05,      /* J =  1 */
(PID.TID 0000.0001)                 1.572908084538706E+05,      /* J =  2 */
(PID.TID 0000.0001)                 1.840412227747703E+05,      /* J =  3 */
(PID.TID 0000.0001)                 2.048868197919576E+05,      /* J =  4 */
(PID.TID 0000.0001)                 2.220405216043041E+05,      /* J =  5 */
(PID.TID 0000.0001)                 2.365892017348392E+05,      /* J =  6 */
(PID.TID 0000.0001)                 2.491250781852558E+05,      /* J =  7 */
(PID.TID 0000.0001)                 2.599949918261881E+05       /* J =  8 */
(PID.TID 0000.0001)     ;
(PID.TID 0000.0001) dyF =  /* dyF(:,1,:,1) ( units: m ) */
(PID.TID 0000.0001)                 1.202082051331828E+05,      /* I =  1 */
(PID.TID 0000.0001)                 1.572908084538706E+05,      /* I =  2 */
(PID.TID 0000.0001)                 1.840412227747703E+05,      /* I =  3 */
(PID.TID 0000.0001)      . . .
(PID.TID 0000.0001)                 2.725847234797694E+05,      /* I =190 */
(PID.TID 0000.0001)                 2.704391598996622E+05,      /* I =191 */
(PID.TID 0000.0001)                 2.693210245495156E+05,      /* I =192 */
(PID.TID 0000.0001)                 3.012190981969055E+05,      /* I =193 */
(PID.TID 0000.0001)                 3.016675528553907E+05,      /* I =194 */
(PID.TID 0000.0001)                 3.025451404065074E+05,      /* I =195 */
(PID.TID 0000.0001)      . . .
(PID.TID 0000.0001)                 2.639749816177823E+05,      /* I =382 */
(PID.TID 0000.0001)                 2.612987785497329E+05,      /* I =383 */
(PID.TID 0000.0001)                 2.598919724358304E+05,      /* I =384 */
(PID.TID 0000.0001)                 1.202082051331828E+05,      /* I =385 */
(PID.TID 0000.0001)                 1.572908084538706E+05,      /* I =386 */
(PID.TID 0000.0001)                 1.840412227747703E+05,      /* I =387 */
(PID.TID 0000.0001)      . . .
(PID.TID 0000.0001)                 2.725847234797694E+05,      /* I =574 */
(PID.TID 0000.0001)                 2.704391598996622E+05,      /* I =575 */
(PID.TID 0000.0001)                 2.693210245495156E+05,      /* I =576 */
(PID.TID 0000.0001)                 3.012190981969055E+05,      /* I =577 */
(PID.TID 0000.0001)                 3.016675528553907E+05,      /* I =578 */
(PID.TID 0000.0001)                 3.025451404065074E+05,      /* I =579 */
(PID.TID 0000.0001)      . . .
(PID.TID 0000.0001)                 2.639749816177823E+05,      /* I =766 */
(PID.TID 0000.0001)                 2.612987785497329E+05,      /* I =767 */
(PID.TID 0000.0001)                 2.598919724358304E+05       /* I =768 */
(PID.TID 0000.0001)     ;
(PID.TID 0000.0001) dyF =  /* dyF(1,:,1,:) ( units: m ) */
(PID.TID 0000.0001)                 1.202082051331828E+05,      /* J =  1 */
(PID.TID 0000.0001)                 1.563594089971120E+05,      /* J =  2 */
(PID.TID 0000.0001)                 1.835530058121492E+05,      /* J =  3 */
(PID.TID 0000.0001)                 2.045883481718707E+05,      /* J =  4 */
(PID.TID 0000.0001)                 2.218350349844185E+05,      /* J =  5 */
(PID.TID 0000.0001)                 2.364352994647058E+05,      /* J =  6 */
(PID.TID 0000.0001)                 2.490022710862746E+05,      /* J =  7 */
(PID.TID 0000.0001)                 2.598919724358304E+05       /* J =  8 */
(PID.TID 0000.0001)     ;
(PID.TID 0000.0001) dxG =  /* dxG(:,1,:,1) ( units: m ) */
(PID.TID 0000.0001)                 1.009837800879055E+05,      /* I =  1 */
(PID.TID 0000.0001)                 1.534505834330338E+05,      /* I =  2 */
(PID.TID 0000.0001)                 1.823321598773926E+05,      /* I =  3 */
(PID.TID 0000.0001)      . . .
(PID.TID 0000.0001)                 2.684951411609472E+05,      /* I =190 */
(PID.TID 0000.0001)                 2.661181018072810E+05,      /* I =191 */
(PID.TID 0000.0001)                 2.648750305193301E+05,      /* I =192 */
(PID.TID 0000.0001)                 3.014246674484008E+05,      /* I =193 */
(PID.TID 0000.0001)                 3.018694497480782E+05,      /* I =194 */
(PID.TID 0000.0001)                 3.027399364062562E+05,      /* I =195 */
(PID.TID 0000.0001)      . . .
(PID.TID 0000.0001)                 2.684951411609472E+05,      /* I =382 */
(PID.TID 0000.0001)                 2.661181018072810E+05,      /* I =383 */
(PID.TID 0000.0001)                 2.648750305193301E+05,      /* I =384 */
(PID.TID 0000.0001)                 1.009837800879055E+05,      /* I =385 */
(PID.TID 0000.0001)                 1.534505834330338E+05,      /* I =386 */
(PID.TID 0000.0001)                 1.823321598773926E+05,      /* I =387 */
(PID.TID 0000.0001)      . . .
(PID.TID 0000.0001)                 2.684951411609472E+05,      /* I =574 */
(PID.TID 0000.0001)                 2.661181018072810E+05,      /* I =575 */
(PID.TID 0000.0001)                 2.648750305193301E+05,      /* I =576 */
(PID.TID 0000.0001)                 3.014246674484008E+05,      /* I =577 */
(PID.TID 0000.0001)                 3.018694497480782E+05,      /* I =578 */
(PID.TID 0000.0001)                 3.027399364062562E+05,      /* I =579 */
(PID.TID 0000.0001)      . . .
(PID.TID 0000.0001)                 2.684951411609472E+05,      /* I =766 */
(PID.TID 0000.0001)                 2.661181018072810E+05,      /* I =767 */
(PID.TID 0000.0001)                 2.648750305193301E+05       /* I =768 */
(PID.TID 0000.0001)     ;
(PID.TID 0000.0001) dxG =  /* dxG(1,:,1,:) ( units: m ) */
(PID.TID 0000.0001)                 1.009837800879055E+05,      /* J =  1 */
(PID.TID 0000.0001)                 1.403701524205398E+05,      /* J =  2 */
(PID.TID 0000.0001)                 1.716197227386011E+05,      /* J =  3 */
(PID.TID 0000.0001)                 1.950254041626018E+05,      /* J =  4 */
(PID.TID 0000.0001)                 2.138410773065497E+05,      /* J =  5 */
(PID.TID 0000.0001)                 2.295958105911512E+05,      /* J =  6 */
(PID.TID 0000.0001)                 2.430829951739083E+05,      /* J =  7 */
(PID.TID 0000.0001)                 2.547526806712889E+05       /* J =  8 */
(PID.TID 0000.0001)     ;
(PID.TID 0000.0001) dyG =  /* dyG(:,1,:,1) ( units: m ) */
(PID.TID 0000.0001)                 1.009837800879055E+05,      /* I =  1 */
(PID.TID 0000.0001)                 1.403701524205398E+05,      /* I =  2 */
(PID.TID 0000.0001)                 1.716197227386011E+05,      /* I =  3 */
(PID.TID 0000.0001)      . . .
(PID.TID 0000.0001)                 2.739940126543603E+05,      /* I =190 */
(PID.TID 0000.0001)                 2.713923099681594E+05,      /* I =191 */
(PID.TID 0000.0001)                 2.697440110688748E+05,      /* I =192 */
(PID.TID 0000.0001)                 3.011625828699101E+05,      /* I =193 */
(PID.TID 0000.0001)                 3.013880313304323E+05,      /* I =194 */
(PID.TID 0000.0001)                 3.020546438966793E+05,      /* I =195 */
(PID.TID 0000.0001)      . . .
(PID.TID 0000.0001)                 2.657171026045170E+05,      /* I =382 */
(PID.TID 0000.0001)                 2.624913419950762E+05,      /* I =383 */
(PID.TID 0000.0001)                 2.604251753978458E+05,      /* I =384 */
(PID.TID 0000.0001)                 1.009837800879055E+05,      /* I =385 */
(PID.TID 0000.0001)                 1.403701524205398E+05,      /* I =386 */
(PID.TID 0000.0001)                 1.716197227386011E+05,      /* I =387 */
(PID.TID 0000.0001)      . . .
(PID.TID 0000.0001)                 2.739940126543603E+05,      /* I =574 */
(PID.TID 0000.0001)                 2.713923099681594E+05,      /* I =575 */
(PID.TID 0000.0001)                 2.697440110688748E+05,      /* I =576 */
(PID.TID 0000.0001)                 3.011625828699101E+05,      /* I =577 */
(PID.TID 0000.0001)                 3.013880313304323E+05,      /* I =578 */
(PID.TID 0000.0001)                 3.020546438966793E+05,      /* I =579 */
(PID.TID 0000.0001)      . . .
(PID.TID 0000.0001)                 2.657171026045170E+05,      /* I =766 */
(PID.TID 0000.0001)                 2.624913419950762E+05,      /* I =767 */
(PID.TID 0000.0001)                 2.604251753978458E+05       /* I =768 */
(PID.TID 0000.0001)     ;
(PID.TID 0000.0001) dyG =  /* dyG(1,:,1,:) ( units: m ) */
(PID.TID 0000.0001)                 1.009837800879055E+05,      /* J =  1 */
(PID.TID 0000.0001)                 1.534505834330338E+05,      /* J =  2 */
(PID.TID 0000.0001)                 1.823321598773926E+05,      /* J =  3 */
(PID.TID 0000.0001)                 2.038999045536999E+05,      /* J =  4 */
(PID.TID 0000.0001)                 2.213884732245467E+05,      /* J =  5 */
(PID.TID 0000.0001)                 2.361211699596122E+05,      /* J =  6 */
(PID.TID 0000.0001)                 2.487693460283865E+05,      /* J =  7 */
(PID.TID 0000.0001)                 2.597126963772147E+05       /* J =  8 */
(PID.TID 0000.0001)     ;
(PID.TID 0000.0001) dxC =  /* dxC(:,1,:,1) ( units: m ) */
(PID.TID 0000.0001)                 1.114203141013064E+05,      /* I =  1 */
(PID.TID 0000.0001)                 1.391343389937106E+05,      /* I =  2 */
(PID.TID 0000.0001)                 1.709574999026266E+05,      /* I =  3 */
(PID.TID 0000.0001)      . . .
(PID.TID 0000.0001)                 2.740607206150700E+05,      /* I =190 */
(PID.TID 0000.0001)                 2.714713968328591E+05,      /* I =191 */
(PID.TID 0000.0001)                 2.698316926768863E+05,      /* I =192 */
(PID.TID 0000.0001)                 3.012281885409289E+05,      /* I =193 */
(PID.TID 0000.0001)                 3.014528555318499E+05,      /* I =194 */
(PID.TID 0000.0001)                 3.021172674809921E+05,      /* I =195 */
(PID.TID 0000.0001)      . . .
(PID.TID 0000.0001)                 2.657864830834272E+05,      /* I =382 */
(PID.TID 0000.0001)                 2.625781987034077E+05,      /* I =383 */
(PID.TID 0000.0001)                 2.605247136571591E+05,      /* I =384 */
(PID.TID 0000.0001)                 1.114203141013064E+05,      /* I =385 */
(PID.TID 0000.0001)                 1.391343389937106E+05,      /* I =386 */
(PID.TID 0000.0001)                 1.709574999026266E+05,      /* I =387 */
(PID.TID 0000.0001)      . . .
(PID.TID 0000.0001)                 2.740607206150700E+05,      /* I =574 */
(PID.TID 0000.0001)                 2.714713968328591E+05,      /* I =575 */
(PID.TID 0000.0001)                 2.698316926768863E+05,      /* I =576 */
(PID.TID 0000.0001)                 3.012281885409289E+05,      /* I =577 */
(PID.TID 0000.0001)                 3.014528555318499E+05,      /* I =578 */
(PID.TID 0000.0001)                 3.021172674809921E+05,      /* I =579 */
(PID.TID 0000.0001)      . . .
(PID.TID 0000.0001)                 2.657864830834272E+05,      /* I =766 */
(PID.TID 0000.0001)                 2.625781987034077E+05,      /* I =767 */
(PID.TID 0000.0001)                 2.605247136571591E+05       /* I =768 */
(PID.TID 0000.0001)     ;
(PID.TID 0000.0001) dxC =  /* dxC(1,:,1,:) ( units: m ) */
(PID.TID 0000.0001)                 1.114203141013064E+05,      /* J =  1 */
(PID.TID 0000.0001)                 1.549545757850771E+05,      /* J =  2 */
(PID.TID 0000.0001)                 1.829777599966776E+05,      /* J =  3 */
(PID.TID 0000.0001)                 2.042717761866506E+05,      /* J =  4 */
(PID.TID 0000.0001)                 2.216367828252819E+05,      /* J =  5 */
(PID.TID 0000.0001)                 2.363029564123586E+05,      /* J =  6 */
(PID.TID 0000.0001)                 2.489113743322025E+05,      /* J =  7 */
(PID.TID 0000.0001)                 2.598293319150326E+05       /* J =  8 */
(PID.TID 0000.0001)     ;
(PID.TID 0000.0001) dyC =  /* dyC(:,1,:,1) ( units: m ) */
(PID.TID 0000.0001)                 1.114203141013064E+05,      /* I =  1 */
(PID.TID 0000.0001)                 1.549545757850771E+05,      /* I =  2 */
(PID.TID 0000.0001)                 1.829777599966776E+05,      /* I =  3 */
(PID.TID 0000.0001)      . . .
(PID.TID 0000.0001)                 2.684194260377608E+05,      /* I =190 */
(PID.TID 0000.0001)                 2.660295500376044E+05,      /* I =191 */
(PID.TID 0000.0001)                 2.647791839299727E+05,      /* I =192 */
(PID.TID 0000.0001)                 3.013593857228136E+05,      /* I =193 */
(PID.TID 0000.0001)                 3.018056440786431E+05,      /* I =194 */
(PID.TID 0000.0001)                 3.026789946729719E+05,      /* I =195 */
(PID.TID 0000.0001)      . . .
(PID.TID 0000.0001)                 2.684194260377608E+05,      /* I =382 */
(PID.TID 0000.0001)                 2.660295500376044E+05,      /* I =383 */
(PID.TID 0000.0001)                 2.647791839299727E+05,      /* I =384 */
(PID.TID 0000.0001)                 1.114203141013064E+05,      /* I =385 */
(PID.TID 0000.0001)                 1.549545757850771E+05,      /* I =386 */
(PID.TID 0000.0001)                 1.829777599966776E+05,      /* I =387 */
(PID.TID 0000.0001)      . . .
(PID.TID 0000.0001)                 2.684194260377608E+05,      /* I =574 */
(PID.TID 0000.0001)                 2.660295500376044E+05,      /* I =575 */
(PID.TID 0000.0001)                 2.647791839299727E+05,      /* I =576 */
(PID.TID 0000.0001)                 3.013593857228136E+05,      /* I =577 */
(PID.TID 0000.0001)                 3.018056440786431E+05,      /* I =578 */
(PID.TID 0000.0001)                 3.026789946729719E+05,      /* I =579 */
(PID.TID 0000.0001)      . . .
(PID.TID 0000.0001)                 2.684194260377608E+05,      /* I =766 */
(PID.TID 0000.0001)                 2.660295500376044E+05,      /* I =767 */
(PID.TID 0000.0001)                 2.647791839299727E+05       /* I =768 */
(PID.TID 0000.0001)     ;
(PID.TID 0000.0001) dyC =  /* dyC(1,:,1,:) ( units: m ) */
(PID.TID 0000.0001)                 1.114203141013064E+05,      /* J =  1 */
(PID.TID 0000.0001)                 1.391343389937106E+05,      /* J =  2 */
(PID.TID 0000.0001)                 1.709574999026266E+05,      /* J =  3 */
(PID.TID 0000.0001)                 1.946503699269892E+05,      /* J =  4 */
(PID.TID 0000.0001)                 2.135964483342134E+05,      /* J =  5 */
(PID.TID 0000.0001)                 2.294195678257306E+05,      /* J =  6 */
(PID.TID 0000.0001)                 2.429464709770498E+05,      /* J =  7 */
(PID.TID 0000.0001)                 2.546408290696998E+05       /* J =  8 */
(PID.TID 0000.0001)     ;
(PID.TID 0000.0001) dxV =  /* dxV(:,1,:,1) ( units: m ) */
(PID.TID 0000.0001)                 8.015229982413632E+04,      /* I =  1 */
(PID.TID 0000.0001)                 1.333130744933864E+05,      /* I =  2 */
(PID.TID 0000.0001)                 1.691744868129062E+05,      /* I =  3 */
(PID.TID 0000.0001)      . . .
(PID.TID 0000.0001)                 2.700508040612306E+05,      /* I =190 */
(PID.TID 0000.0001)                 2.671753991965412E+05,      /* I =191 */
(PID.TID 0000.0001)                 2.653456356424517E+05,      /* I =192 */
(PID.TID 0000.0001)                 3.013686170436881E+05,      /* I =193 */
(PID.TID 0000.0001)                 3.015922136961168E+05,      /* I =194 */
(PID.TID 0000.0001)                 3.022533948177109E+05,      /* I =195 */
(PID.TID 0000.0001)      . . .
(PID.TID 0000.0001)                 2.700508040612306E+05,      /* I =382 */
(PID.TID 0000.0001)                 2.671753991965412E+05,      /* I =383 */
(PID.TID 0000.0001)                 2.653456356424517E+05,      /* I =384 */
(PID.TID 0000.0001)                 8.015229982413632E+04,      /* I =385 */
(PID.TID 0000.0001)                 1.333130744933864E+05,      /* I =386 */
(PID.TID 0000.0001)                 1.691744868129062E+05,      /* I =387 */
(PID.TID 0000.0001)      . . .
(PID.TID 0000.0001)                 2.700508040612306E+05,      /* I =574 */
(PID.TID 0000.0001)                 2.671753991965412E+05,      /* I =575 */
(PID.TID 0000.0001)                 2.653456356424517E+05,      /* I =576 */
(PID.TID 0000.0001)                 3.013686170436881E+05,      /* I =577 */
(PID.TID 0000.0001)                 3.015922136961168E+05,      /* I =578 */
(PID.TID 0000.0001)                 3.022533948177109E+05,      /* I =579 */
(PID.TID 0000.0001)      . . .
(PID.TID 0000.0001)                 2.700508040612306E+05,      /* I =766 */
(PID.TID 0000.0001)                 2.671753991965412E+05,      /* I =767 */
(PID.TID 0000.0001)                 2.653456356424517E+05       /* I =768 */
(PID.TID 0000.0001)     ;
(PID.TID 0000.0001) dxV =  /* dxV(1,:,1,:) ( units: m ) */
(PID.TID 0000.0001)                 8.015229982413632E+04,      /* J =  1 */
(PID.TID 0000.0001)                 1.362652340208229E+05,      /* J =  2 */
(PID.TID 0000.0001)                 1.701080315742101E+05,      /* J =  3 */
(PID.TID 0000.0001)                 1.942331448101592E+05,      /* J =  4 */
(PID.TID 0000.0001)                 2.133486626971531E+05,      /* J =  5 */
(PID.TID 0000.0001)                 2.292584591272880E+05,      /* J =  6 */
(PID.TID 0000.0001)                 2.428369969078989E+05,      /* J =  7 */
(PID.TID 0000.0001)                 2.545652950875683E+05       /* J =  8 */
(PID.TID 0000.0001)     ;
(PID.TID 0000.0001) dyU =  /* dyU(:,1,:,1) ( units: m ) */
(PID.TID 0000.0001)                 8.015229982413632E+04,      /* I =  1 */
(PID.TID 0000.0001)                 1.362652340208229E+05,      /* I =  2 */
(PID.TID 0000.0001)                 1.701080315742101E+05,      /* I =  3 */
(PID.TID 0000.0001)      . . .
(PID.TID 0000.0001)                 2.699827671480681E+05,      /* I =190 */
(PID.TID 0000.0001)                 2.670927303518708E+05,      /* I =191 */
(PID.TID 0000.0001)                 2.652526003845025E+05,      /* I =192 */
(PID.TID 0000.0001)                 3.013031486919771E+05,      /* I =193 */
(PID.TID 0000.0001)                 3.015274890091515E+05,      /* I =194 */
(PID.TID 0000.0001)                 3.021908563699420E+05,      /* I =195 */
(PID.TID 0000.0001)      . . .
(PID.TID 0000.0001)                 2.699827671480681E+05,      /* I =382 */
(PID.TID 0000.0001)                 2.670927303518708E+05,      /* I =383 */
(PID.TID 0000.0001)                 2.652526003845025E+05,      /* I =384 */
(PID.TID 0000.0001)                 8.015229982413632E+04,      /* I =385 */
(PID.TID 0000.0001)                 1.362652340208229E+05,      /* I =386 */
(PID.TID 0000.0001)                 1.701080315742101E+05,      /* I =387 */
(PID.TID 0000.0001)      . . .
(PID.TID 0000.0001)                 2.699827671480681E+05,      /* I =574 */
(PID.TID 0000.0001)                 2.670927303518708E+05,      /* I =575 */
(PID.TID 0000.0001)                 2.652526003845025E+05,      /* I =576 */
(PID.TID 0000.0001)                 3.013031486919771E+05,      /* I =577 */
(PID.TID 0000.0001)                 3.015274890091515E+05,      /* I =578 */
(PID.TID 0000.0001)                 3.021908563699420E+05,      /* I =579 */
(PID.TID 0000.0001)      . . .
(PID.TID 0000.0001)                 2.699827671480681E+05,      /* I =766 */
(PID.TID 0000.0001)                 2.670927303518708E+05,      /* I =767 */
(PID.TID 0000.0001)                 2.652526003845025E+05       /* I =768 */
(PID.TID 0000.0001)     ;
(PID.TID 0000.0001) dyU =  /* dyU(1,:,1,:) ( units: m ) */
(PID.TID 0000.0001)                 8.015229982413632E+04,      /* J =  1 */
(PID.TID 0000.0001)                 1.333130744933864E+05,      /* J =  2 */
(PID.TID 0000.0001)                 1.691744868129062E+05,      /* J =  3 */
(PID.TID 0000.0001)                 1.937548202849060E+05,      /* J =  4 */
(PID.TID 0000.0001)                 2.130490056267208E+05,      /* J =  5 */
(PID.TID 0000.0001)                 2.290479919481738E+05,      /* J =  6 */
(PID.TID 0000.0001)                 2.426774358027003E+05,      /* J =  7 */
(PID.TID 0000.0001)                 2.544372984215561E+05       /* J =  8 */
(PID.TID 0000.0001)     ;
(PID.TID 0000.0001) rA  =  /* rA (:,1,:,1) ( units: m^2 ) */
(PID.TID 0000.0001)                 1.401900702255611E+10,      /* I =  1 */
(PID.TID 0000.0001)                 2.459906945574446E+10,      /* I =  2 */
(PID.TID 0000.0001)                 3.378518544307869E+10,      /* I =  3 */
(PID.TID 0000.0001)      . . .
(PID.TID 0000.0001)                 7.432809861298544E+10,      /* I =190 */
(PID.TID 0000.0001)                 7.316560555600214E+10,      /* I =191 */
(PID.TID 0000.0001)                 7.256353271748119E+10,      /* I =192 */
(PID.TID 0000.0001)                 9.076111290422060E+10,      /* I =193 */
(PID.TID 0000.0001)                 9.103111035233499E+10,      /* I =194 */
(PID.TID 0000.0001)                 9.156064070993231E+10,      /* I =195 */
(PID.TID 0000.0001)      . . .
(PID.TID 0000.0001)                 6.970852823515175E+10,      /* I =382 */
(PID.TID 0000.0001)                 6.830648821282825E+10,      /* I =383 */
(PID.TID 0000.0001)                 6.757541173817516E+10,      /* I =384 */
(PID.TID 0000.0001)                 1.401900702255611E+10,      /* I =385 */
(PID.TID 0000.0001)                 2.459906945574446E+10,      /* I =386 */
(PID.TID 0000.0001)                 3.378518544307869E+10,      /* I =387 */
(PID.TID 0000.0001)      . . .
(PID.TID 0000.0001)                 7.432809861298544E+10,      /* I =574 */
(PID.TID 0000.0001)                 7.316560555600214E+10,      /* I =575 */
(PID.TID 0000.0001)                 7.256353271748119E+10,      /* I =576 */
(PID.TID 0000.0001)                 9.076111290422060E+10,      /* I =577 */
(PID.TID 0000.0001)                 9.103111035233499E+10,      /* I =578 */
(PID.TID 0000.0001)                 9.156064070993231E+10,      /* I =579 */
(PID.TID 0000.0001)      . . .
(PID.TID 0000.0001)                 6.970852823515175E+10,      /* I =766 */
(PID.TID 0000.0001)                 6.830648821282825E+10,      /* I =767 */
(PID.TID 0000.0001)                 6.757541173817516E+10       /* I =768 */
(PID.TID 0000.0001)     ;
(PID.TID 0000.0001) rA  =  /* rA (1,:,1,:) ( units: m^2 ) */
(PID.TID 0000.0001)                 1.401900702255611E+10,      /* J =  1 */
(PID.TID 0000.0001)                 2.459906945574446E+10,      /* J =  2 */
(PID.TID 0000.0001)                 3.378518544307869E+10,      /* J =  3 */
(PID.TID 0000.0001)                 4.192037169898667E+10,      /* J =  4 */
(PID.TID 0000.0001)                 4.925938996118163E+10,      /* J =  5 */
(PID.TID 0000.0001)                 5.594154126607553E+10,      /* J =  6 */
(PID.TID 0000.0001)                 6.203683527776127E+10,      /* J =  7 */
(PID.TID 0000.0001)                 6.757541173817516E+10       /* J =  8 */
(PID.TID 0000.0001)     ;
(PID.TID 0000.0001) rAw =  /* rAw(:,1,:,1) ( units: m^2 ) */
(PID.TID 0000.0001)                 1.216690346714270E+10,      /* I =  1 */
(PID.TID 0000.0001)                 1.974052138506315E+10,      /* I =  2 */
(PID.TID 0000.0001)                 2.943712825252015E+10,      /* I =  3 */
(PID.TID 0000.0001)      . . .
(PID.TID 0000.0001)                 7.509678831851245E+10,      /* I =190 */
(PID.TID 0000.0001)                 7.368167655646770E+10,      /* I =191 */
(PID.TID 0000.0001)                 7.279231679395761E+10,      /* I =192 */
(PID.TID 0000.0001)                 9.071447638299399E+10,      /* I =193 */
(PID.TID 0000.0001)                 9.085012105610597E+10,      /* I =194 */
(PID.TID 0000.0001)                 9.125179254955583E+10,      /* I =195 */
(PID.TID 0000.0001)      . . .
(PID.TID 0000.0001)                 7.063282762452747E+10,      /* I =382 */
(PID.TID 0000.0001)                 6.893429052933911E+10,      /* I =383 */
(PID.TID 0000.0001)                 6.785762228965186E+10,      /* I =384 */
(PID.TID 0000.0001)                 1.216690346714270E+10,      /* I =385 */
(PID.TID 0000.0001)                 1.974052138506315E+10,      /* I =386 */
(PID.TID 0000.0001)                 2.943712825252015E+10,      /* I =387 */
(PID.TID 0000.0001)      . . .
(PID.TID 0000.0001)                 7.509678831851245E+10,      /* I =574 */
(PID.TID 0000.0001)                 7.368167655646770E+10,      /* I =575 */
(PID.TID 0000.0001)                 7.279231679395761E+10,      /* I =576 */
(PID.TID 0000.0001)                 9.071447638299399E+10,      /* I =577 */
(PID.TID 0000.0001)                 9.085012105610597E+10,      /* I =578 */
(PID.TID 0000.0001)                 9.125179254955583E+10,      /* I =579 */
(PID.TID 0000.0001)      . . .
(PID.TID 0000.0001)                 7.063282762452747E+10,      /* I =766 */
(PID.TID 0000.0001)                 6.893429052933911E+10,      /* I =767 */
(PID.TID 0000.0001)                 6.785762228965186E+10       /* I =768 */
(PID.TID 0000.0001)     ;
(PID.TID 0000.0001) rAw =  /* rAw(1,:,1,:) ( units: m^2 ) */
(PID.TID 0000.0001)                 1.216690346714270E+10,      /* J =  1 */
(PID.TID 0000.0001)                 2.390126200743558E+10,      /* J =  2 */
(PID.TID 0000.0001)                 3.341968103208270E+10,      /* J =  3 */
(PID.TID 0000.0001)                 4.168532893152940E+10,      /* J =  4 */
(PID.TID 0000.0001)                 4.909074590409593E+10,      /* J =  5 */
(PID.TID 0000.0001)                 5.581203765722643E+10,      /* J =  6 */
(PID.TID 0000.0001)                 6.193257577506788E+10,      /* J =  7 */
(PID.TID 0000.0001)                 6.748840226738273E+10       /* J =  8 */
(PID.TID 0000.0001)     ;
(PID.TID 0000.0001) rAs =  /* rAs(:,1,:,1) ( units: m^2 ) */
(PID.TID 0000.0001)                 1.216690346714270E+10,      /* I =  1 */
(PID.TID 0000.0001)                 2.390126200743558E+10,      /* I =  2 */
(PID.TID 0000.0001)                 3.341968103208270E+10,      /* I =  3 */
(PID.TID 0000.0001)      . . .
(PID.TID 0000.0001)                 7.207697049617757E+10,      /* I =190 */
(PID.TID 0000.0001)                 7.080359444504936E+10,      /* I =191 */
(PID.TID 0000.0001)                 7.014205907742783E+10,      /* I =192 */
(PID.TID 0000.0001)                 9.083293515008307E+10,      /* I =193 */
(PID.TID 0000.0001)                 9.110170898494536E+10,      /* I =194 */
(PID.TID 0000.0001)                 9.162886297688426E+10,      /* I =195 */
(PID.TID 0000.0001)      . . .
(PID.TID 0000.0001)                 7.207697049620459E+10,      /* I =382 */
(PID.TID 0000.0001)                 7.080359444504936E+10,      /* I =383 */
(PID.TID 0000.0001)                 7.014205907741882E+10,      /* I =384 */
(PID.TID 0000.0001)                 1.216690346714270E+10,      /* I =385 */
(PID.TID 0000.0001)                 2.390126200743558E+10,      /* I =386 */
(PID.TID 0000.0001)                 3.341968103208270E+10,      /* I =387 */
(PID.TID 0000.0001)      . . .
(PID.TID 0000.0001)                 7.207697049617757E+10,      /* I =574 */
(PID.TID 0000.0001)                 7.080359444504936E+10,      /* I =575 */
(PID.TID 0000.0001)                 7.014205907742783E+10,      /* I =576 */
(PID.TID 0000.0001)                 9.083293515008307E+10,      /* I =577 */
(PID.TID 0000.0001)                 9.110170898494536E+10,      /* I =578 */
(PID.TID 0000.0001)                 9.162886297688426E+10,      /* I =579 */
(PID.TID 0000.0001)      . . .
(PID.TID 0000.0001)                 7.207697049620459E+10,      /* I =766 */
(PID.TID 0000.0001)                 7.080359444504936E+10,      /* I =767 */
(PID.TID 0000.0001)                 7.014205907741882E+10       /* I =768 */
(PID.TID 0000.0001)     ;
(PID.TID 0000.0001) rAs =  /* rAs(1,:,1,:) ( units: m^2 ) */
(PID.TID 0000.0001)                 1.216690346714270E+10,      /* J =  1 */
(PID.TID 0000.0001)                 1.974052138506315E+10,      /* J =  2 */
(PID.TID 0000.0001)                 2.943712825252015E+10,      /* J =  3 */
(PID.TID 0000.0001)                 3.801790263324359E+10,      /* J =  4 */
(PID.TID 0000.0001)                 4.571243814189866E+10,      /* J =  5 */
(PID.TID 0000.0001)                 5.269930713599979E+10,      /* J =  6 */
(PID.TID 0000.0001)                 5.907428494299063E+10,      /* J =  7 */
(PID.TID 0000.0001)                 6.488320895111514E+10       /* J =  8 */
(PID.TID 0000.0001)     ;
(PID.TID 0000.0001) globalArea = /* Integrated horizontal Area (m^2) */
(PID.TID 0000.0001)                 4.538924019823574E+14
(PID.TID 0000.0001)     ;
(PID.TID 0000.0001) // =======================================================
(PID.TID 0000.0001) // End of Model config. summary
(PID.TID 0000.0001) // =======================================================
(PID.TID 0000.0001) 
(PID.TID 0000.0001) == Packages configuration : Check & print summary ==
(PID.TID 0000.0001) 
(PID.TID 0000.0001) // =======================================================
(PID.TID 0000.0001) // CONFIG_CHECK : Normal End
(PID.TID 0000.0001) // =======================================================
(PID.TID 0000.0001) 
(PID.TID 0000.0001) // =======================================================
(PID.TID 0000.0001) // Field Initial Temperature at iteration          1
(PID.TID 0000.0001) // CMIN =          1.500000000000000E+01
(PID.TID 0000.0001) // CMAX =          1.500000000000000E+01
(PID.TID 0000.0001) // CINT =          0.000000000000000E+00
(PID.TID 0000.0001) // SYMBOLS (CMIN->CMAX): -abcdefghijklmnopqrstuvwxyz+
(PID.TID 0000.0001) //                  0.0: .
(PID.TID 0000.0001) // RANGE I (Lo:Hi:Step):(   1: 768:   1)
(PID.TID 0000.0001) // RANGE J (Lo:Hi:Step):(   8:   1:  -1)
(PID.TID 0000.0001) // RANGE K (Lo:Hi:Step):(   1:   1:   1)
(PID.TID 0000.0001) // =======================================================
(PID.TID 0000.0001) // =======================================================
(PID.TID 0000.0001) // END OF FIELD                                          =
(PID.TID 0000.0001) // =======================================================
(PID.TID 0000.0001) 
(PID.TID 0000.0001) // =======================================================
(PID.TID 0000.0001) // Field Initial Salinity at iteration          1
(PID.TID 0000.0001) // CMIN =          1.000000000000000E+32
(PID.TID 0000.0001) // CMAX =         -1.000000000000000E+32
(PID.TID 0000.0001) // CINT =          0.000000000000000E+00
(PID.TID 0000.0001) // SYMBOLS (CMIN->CMAX): -abcdefghijklmnopqrstuvwxyz+
(PID.TID 0000.0001) //                  0.0: .
(PID.TID 0000.0001) // RANGE I (Lo:Hi:Step):(   1: 768:   1)
(PID.TID 0000.0001) // RANGE J (Lo:Hi:Step):(   8:   1:  -1)
(PID.TID 0000.0001) // RANGE K (Lo:Hi:Step):(   1:   1:   1)
(PID.TID 0000.0001) // =======================================================
(PID.TID 0000.0001) // =======================================================
(PID.TID 0000.0001) // END OF FIELD                                          =
(PID.TID 0000.0001) // =======================================================
(PID.TID 0000.0001) 
(PID.TID 0000.0001)  MDS_READ_FIELD: opening global file: ssh_eq.bin
(PID.TID 0000.0001) Start initial hydrostatic pressure computation
(PID.TID 0000.0001) Pressure is predetermined for buoyancyRelation OCEANIC
(PID.TID 0000.0001) 
(PID.TID 0000.0001) // =======================================================
(PID.TID 0000.0001) // Model current state
(PID.TID 0000.0001) // =======================================================
(PID.TID 0000.0001) 
(PID.TID 0000.0001) // =======================================================
(PID.TID 0000.0001) // Begin MONITOR dynamic field statistics
(PID.TID 0000.0001) // =======================================================
(PID.TID 0000.0001) %MON time_tsnumber                =                     0
(PID.TID 0000.0001) %MON time_secondsf                =   0.0000000000000E+00
(PID.TID 0000.0001) %MON dynstat_eta_max              =   9.5367171719996E+00
(PID.TID 0000.0001) %MON dynstat_eta_min              =   0.0000000000000E+00
(PID.TID 0000.0001) %MON dynstat_eta_mean             =   5.6129684401127E-02
(PID.TID 0000.0001) %MON dynstat_eta_sd               =   5.6844641421500E-01
(PID.TID 0000.0001) %MON dynstat_eta_del2             =   5.0384311464417E-03
(PID.TID 0000.0001) %MON dynstat_uvel_max             =   0.0000000000000E+00
(PID.TID 0000.0001) %MON dynstat_uvel_min             =   0.0000000000000E+00
(PID.TID 0000.0001) %MON dynstat_uvel_mean            =   0.0000000000000E+00
(PID.TID 0000.0001) %MON dynstat_uvel_sd              =   0.0000000000000E+00
(PID.TID 0000.0001) %MON dynstat_uvel_del2            =   0.0000000000000E+00
(PID.TID 0000.0001) %MON dynstat_vvel_max             =   0.0000000000000E+00
(PID.TID 0000.0001) %MON dynstat_vvel_min             =   0.0000000000000E+00
(PID.TID 0000.0001) %MON dynstat_vvel_mean            =   0.0000000000000E+00
(PID.TID 0000.0001) %MON dynstat_vvel_sd              =   0.0000000000000E+00
(PID.TID 0000.0001) %MON dynstat_vvel_del2            =   0.0000000000000E+00
(PID.TID 0000.0001) %MON dynstat_wvel_max             =   0.0000000000000E+00
(PID.TID 0000.0001) %MON dynstat_wvel_min             =   0.0000000000000E+00
(PID.TID 0000.0001) %MON dynstat_wvel_mean            =   0.0000000000000E+00
(PID.TID 0000.0001) %MON dynstat_wvel_sd              =   0.0000000000000E+00
(PID.TID 0000.0001) %MON dynstat_wvel_del2            =   0.0000000000000E+00
(PID.TID 0000.0001) %MON dynstat_theta_max            =   1.5000000000000E+01
(PID.TID 0000.0001) %MON dynstat_theta_min            =   1.5000000000000E+01
(PID.TID 0000.0001) %MON dynstat_theta_mean           =   1.5000000000000E+01
(PID.TID 0000.0001) %MON dynstat_theta_sd             =   1.7763568394003E-15
(PID.TID 0000.0001) %MON dynstat_theta_del2           =   0.0000000000000E+00
(PID.TID 0000.0001) %MON dynstat_salt_max             =   0.0000000000000E+00
(PID.TID 0000.0001) %MON dynstat_salt_min             =   0.0000000000000E+00
(PID.TID 0000.0001) %MON dynstat_salt_mean            =   0.0000000000000E+00
(PID.TID 0000.0001) %MON dynstat_salt_sd              =   0.0000000000000E+00
(PID.TID 0000.0001) %MON dynstat_salt_del2            =   0.0000000000000E+00
(PID.TID 0000.0001) %MON extforcing_qnet_max          =   0.0000000000000E+00
(PID.TID 0000.0001) %MON extforcing_qnet_min          =   0.0000000000000E+00
(PID.TID 0000.0001) %MON extforcing_qnet_mean         =   0.0000000000000E+00
(PID.TID 0000.0001) %MON extforcing_qnet_sd           =   0.0000000000000E+00
(PID.TID 0000.0001) %MON extforcing_qnet_del2         =   0.0000000000000E+00
(PID.TID 0000.0001) %MON extforcing_qsw_max           =   0.0000000000000E+00
(PID.TID 0000.0001) %MON extforcing_qsw_min           =   0.0000000000000E+00
(PID.TID 0000.0001) %MON extforcing_qsw_mean          =   0.0000000000000E+00
(PID.TID 0000.0001) %MON extforcing_qsw_sd            =   0.0000000000000E+00
(PID.TID 0000.0001) %MON extforcing_qsw_del2          =   0.0000000000000E+00
(PID.TID 0000.0001) %MON extforcing_empmr_max         =   0.0000000000000E+00
(PID.TID 0000.0001) %MON extforcing_empmr_min         =   0.0000000000000E+00
(PID.TID 0000.0001) %MON extforcing_empmr_mean        =   0.0000000000000E+00
(PID.TID 0000.0001) %MON extforcing_empmr_sd          =   0.0000000000000E+00
(PID.TID 0000.0001) %MON extforcing_empmr_del2        =   0.0000000000000E+00
(PID.TID 0000.0001) %MON advcfl_uvel_max              =   0.0000000000000E+00
(PID.TID 0000.0001) %MON advcfl_vvel_max              =   0.0000000000000E+00
(PID.TID 0000.0001) %MON advcfl_wvel_max              =   0.0000000000000E+00
(PID.TID 0000.0001) %MON advcfl_W_hf_max              =   0.0000000000000E+00
(PID.TID 0000.0001) %MON pe_b_mean                    =   1.1726083037870E-03
(PID.TID 0000.0001) %MON ke_max                       =   0.0000000000000E+00
(PID.TID 0000.0001) %MON ke_mean                      =   0.0000000000000E+00
(PID.TID 0000.0001) %MON ke_vol                       =   6.2001702110790E+17
(PID.TID 0000.0001) %MON vort_r_min                   =   0.0000000000000E+00
(PID.TID 0000.0001) %MON vort_r_max                   =   0.0000000000000E+00
(PID.TID 0000.0001) %MON vort_a_mean                  =   4.2916559760387E-21
(PID.TID 0000.0001) %MON vort_a_sd                    =   8.8130260173797E-05
(PID.TID 0000.0001) %MON vort_p_mean                  =   4.3511624968410E-21
(PID.TID 0000.0001) %MON vort_p_sd                    =   8.9588950369082E-05
(PID.TID 0000.0001) %MON surfExpan_theta_mean         =   0.0000000000000E+00
(PID.TID 0000.0001) %MON surfExpan_salt_mean          =   0.0000000000000E+00
(PID.TID 0000.0001) // =======================================================
(PID.TID 0000.0001) // End MONITOR dynamic field statistics
(PID.TID 0000.0001) // =======================================================
 cg2d: Sum(rhs),rhsMax =  -2.57319988105478E+01  3.54777297546879E+03
(PID.TID 0000.0001)                    cg2d_init_res =    7.45534229389584E-02
(PID.TID 0000.0001)                       cg2d_iters =     5
(PID.TID 0000.0001)                         cg2d_res =    2.62126939861728E-14
(PID.TID 0000.0001) // =======================================================
(PID.TID 0000.0001) // Begin MONITOR dynamic field statistics
(PID.TID 0000.0001) // =======================================================
(PID.TID 0000.0001) %MON time_tsnumber                =                     1
(PID.TID 0000.0001) %MON time_secondsf                =   9.0000000000000E+02
(PID.TID 0000.0001) %MON dynstat_eta_max              =   9.3615701337835E+00
(PID.TID 0000.0001) %MON dynstat_eta_min              =   0.0000000000000E+00
(PID.TID 0000.0001) %MON dynstat_eta_mean             =   5.6129684401127E-02
(PID.TID 0000.0001) %MON dynstat_eta_sd               =   5.6069754844196E-01
(PID.TID 0000.0001) %MON dynstat_eta_del2             =   4.8982800264786E-03
(PID.TID 0000.0001) %MON dynstat_uvel_max             =   7.7147300763397E-02
(PID.TID 0000.0001) %MON dynstat_uvel_min             =  -7.7147300763397E-02
(PID.TID 0000.0001) %MON dynstat_uvel_mean            =  -1.0081715594978E-19
(PID.TID 0000.0001) %MON dynstat_uvel_sd              =   5.6077842779355E-03
(PID.TID 0000.0001) %MON dynstat_uvel_del2            =   9.1215421494408E-05
(PID.TID 0000.0001) %MON dynstat_vvel_max             =   7.7147300763397E-02
(PID.TID 0000.0001) %MON dynstat_vvel_min             =  -7.7147300763397E-02
(PID.TID 0000.0001) %MON dynstat_vvel_mean            =  -9.5626794180291E-20
(PID.TID 0000.0001) %MON dynstat_vvel_sd              =   5.6330570111323E-03
(PID.TID 0000.0001) %MON dynstat_vvel_del2            =   9.2047527145699E-05
(PID.TID 0000.0001) %MON dynstat_wvel_max             =   1.5172354266439E-04
(PID.TID 0000.0001) %MON dynstat_wvel_min             =  -3.8921564048023E-04
(PID.TID 0000.0001) %MON dynstat_wvel_mean            =   8.7120816601198E-23
(PID.TID 0000.0001) %MON dynstat_wvel_sd              =   2.3424981056329E-05
(PID.TID 0000.0001) %MON dynstat_wvel_del2            =   6.9362182025622E-07
(PID.TID 0000.0001) %MON dynstat_theta_max            =   1.5000000000000E+01
(PID.TID 0000.0001) %MON dynstat_theta_min            =   1.5000000000000E+01
(PID.TID 0000.0001) %MON dynstat_theta_mean           =   1.5000000000000E+01
(PID.TID 0000.0001) %MON dynstat_theta_sd             =   1.7763568394003E-15
(PID.TID 0000.0001) %MON dynstat_theta_del2           =   0.0000000000000E+00
(PID.TID 0000.0001) %MON dynstat_salt_max             =   0.0000000000000E+00
(PID.TID 0000.0001) %MON dynstat_salt_min             =   0.0000000000000E+00
(PID.TID 0000.0001) %MON dynstat_salt_mean            =   0.0000000000000E+00
(PID.TID 0000.0001) %MON dynstat_salt_sd              =   0.0000000000000E+00
(PID.TID 0000.0001) %MON dynstat_salt_del2            =   0.0000000000000E+00
(PID.TID 0000.0001) %MON extforcing_qnet_max          =   0.0000000000000E+00
(PID.TID 0000.0001) %MON extforcing_qnet_min          =   0.0000000000000E+00
(PID.TID 0000.0001) %MON extforcing_qnet_mean         =   0.0000000000000E+00
(PID.TID 0000.0001) %MON extforcing_qnet_sd           =   0.0000000000000E+00
(PID.TID 0000.0001) %MON extforcing_qnet_del2         =   0.0000000000000E+00
(PID.TID 0000.0001) %MON extforcing_qsw_max           =   0.0000000000000E+00
(PID.TID 0000.0001) %MON extforcing_qsw_min           =   0.0000000000000E+00
(PID.TID 0000.0001) %MON extforcing_qsw_mean          =   0.0000000000000E+00
(PID.TID 0000.0001) %MON extforcing_qsw_sd            =   0.0000000000000E+00
(PID.TID 0000.0001) %MON extforcing_qsw_del2          =   0.0000000000000E+00
(PID.TID 0000.0001) %MON extforcing_empmr_max         =   0.0000000000000E+00
(PID.TID 0000.0001) %MON extforcing_empmr_min         =   0.0000000000000E+00
(PID.TID 0000.0001) %MON extforcing_empmr_mean        =   0.0000000000000E+00
(PID.TID 0000.0001) %MON extforcing_empmr_sd          =   0.0000000000000E+00
(PID.TID 0000.0001) %MON extforcing_empmr_del2        =   0.0000000000000E+00
(PID.TID 0000.0001) %MON advcfl_uvel_max              =   2.1568620180715E-04
(PID.TID 0000.0001) %MON advcfl_vvel_max              =   2.1568620180715E-04
(PID.TID 0000.0001) %MON advcfl_wvel_max              =   5.1287566095491E-04
(PID.TID 0000.0001) %MON advcfl_W_hf_max              =   0.0000000000000E+00
(PID.TID 0000.0001) %MON pe_b_mean                    =   1.1411636019518E-03
(PID.TID 0000.0001) %MON ke_max                       =   3.1369118816719E-03
(PID.TID 0000.0001) %MON ke_mean                      =   3.1444701835171E-05
(PID.TID 0000.0001) %MON ke_vol                       =   6.2001702110790E+17
(PID.TID 0000.0001) %MON vort_r_min                   =  -1.0543782938326E-22
(PID.TID 0000.0001) %MON vort_r_max                   =   1.0543782938326E-22
(PID.TID 0000.0001) %MON vort_a_mean                  =   4.2916559760387E-21
(PID.TID 0000.0001) %MON vort_a_sd                    =   8.8130260173797E-05
(PID.TID 0000.0001) %MON vort_p_mean                  =   4.3511624968410E-21
(PID.TID 0000.0001) %MON vort_p_sd                    =   8.9588950369082E-05
(PID.TID 0000.0001) %MON surfExpan_theta_mean         =  -2.7565920378140E-21
(PID.TID 0000.0001) %MON surfExpan_salt_mean          =   0.0000000000000E+00
(PID.TID 0000.0001) // =======================================================
(PID.TID 0000.0001) // End MONITOR dynamic field statistics
(PID.TID 0000.0001) // =======================================================
 cg2d: Sum(rhs),rhsMax =  -2.72391586034360E+01  3.35147246337267E+03
(PID.TID 0000.0001)                    cg2d_init_res =    2.30503278067408E-01
(PID.TID 0000.0001)                       cg2d_iters =     5
(PID.TID 0000.0001)                         cg2d_res =    7.93736648718341E-14
(PID.TID 0000.0001) // =======================================================
(PID.TID 0000.0001) // Begin MONITOR dynamic field statistics
(PID.TID 0000.0001) // =======================================================
(PID.TID 0000.0001) %MON time_tsnumber                =                     2
(PID.TID 0000.0001) %MON time_secondsf                =   1.8000000000000E+03
(PID.TID 0000.0001) %MON dynstat_eta_max              =   8.8453705995655E+00
(PID.TID 0000.0001) %MON dynstat_eta_min              =   0.0000000000000E+00
(PID.TID 0000.0001) %MON dynstat_eta_mean             =   5.6129684401127E-02
(PID.TID 0000.0001) %MON dynstat_eta_sd               =   5.3837032248815E-01
(PID.TID 0000.0001) %MON dynstat_eta_del2             =   4.4872698466466E-03
(PID.TID 0000.0001) %MON dynstat_uvel_max             =   1.5013718801914E-01
(PID.TID 0000.0001) %MON dynstat_uvel_min             =  -1.5000362980083E-01
(PID.TID 0000.0001) %MON dynstat_uvel_mean            =   1.6184330929260E-05
(PID.TID 0000.0001) %MON dynstat_uvel_sd              =   1.0939190345846E-02
(PID.TID 0000.0001) %MON dynstat_uvel_del2            =   1.7249472528994E-04
(PID.TID 0000.0001) %MON dynstat_vvel_max             =   1.5044834460993E-01
(PID.TID 0000.0001) %MON dynstat_vvel_min             =  -1.5044834460993E-01
(PID.TID 0000.0001) %MON dynstat_vvel_mean            =  -1.8771563015327E-19
(PID.TID 0000.0001) %MON dynstat_vvel_sd              =   1.0987829940561E-02
(PID.TID 0000.0001) %MON dynstat_vvel_del2            =   1.7358725257759E-04
(PID.TID 0000.0001) %MON dynstat_wvel_max             =   2.8205251866241E-04
(PID.TID 0000.0001) %MON dynstat_wvel_min             =  -7.5988081132563E-04
(PID.TID 0000.0001) %MON dynstat_wvel_mean            =  -7.9180343427983E-22
(PID.TID 0000.0001) %MON dynstat_wvel_sd              =   4.5047290024786E-05
(PID.TID 0000.0001) %MON dynstat_wvel_del2            =   1.2650299645878E-06
(PID.TID 0000.0001) %MON dynstat_theta_max            =   1.5000000000000E+01
(PID.TID 0000.0001) %MON dynstat_theta_min            =   1.5000000000000E+01
(PID.TID 0000.0001) %MON dynstat_theta_mean           =   1.5000000000000E+01
(PID.TID 0000.0001) %MON dynstat_theta_sd             =   1.7763568394003E-15
(PID.TID 0000.0001) %MON dynstat_theta_del2           =   0.0000000000000E+00
(PID.TID 0000.0001) %MON dynstat_salt_max             =   0.0000000000000E+00
(PID.TID 0000.0001) %MON dynstat_salt_min             =   0.0000000000000E+00
(PID.TID 0000.0001) %MON dynstat_salt_mean            =   0.0000000000000E+00
(PID.TID 0000.0001) %MON dynstat_salt_sd              =   0.0000000000000E+00
(PID.TID 0000.0001) %MON dynstat_salt_del2            =   0.0000000000000E+00
(PID.TID 0000.0001) %MON extforcing_qnet_max          =   0.0000000000000E+00
(PID.TID 0000.0001) %MON extforcing_qnet_min          =   0.0000000000000E+00
(PID.TID 0000.0001) %MON extforcing_qnet_mean         =   0.0000000000000E+00
(PID.TID 0000.0001) %MON extforcing_qnet_sd           =   0.0000000000000E+00
(PID.TID 0000.0001) %MON extforcing_qnet_del2         =   0.0000000000000E+00
(PID.TID 0000.0001) %MON extforcing_qsw_max           =   0.0000000000000E+00
(PID.TID 0000.0001) %MON extforcing_qsw_min           =   0.0000000000000E+00
(PID.TID 0000.0001) %MON extforcing_qsw_mean          =   0.0000000000000E+00
(PID.TID 0000.0001) %MON extforcing_qsw_sd            =   0.0000000000000E+00
(PID.TID 0000.0001) %MON extforcing_qsw_del2          =   0.0000000000000E+00
(PID.TID 0000.0001) %MON extforcing_empmr_max         =   0.0000000000000E+00
(PID.TID 0000.0001) %MON extforcing_empmr_min         =   0.0000000000000E+00
(PID.TID 0000.0001) %MON extforcing_empmr_mean        =   0.0000000000000E+00
(PID.TID 0000.0001) %MON extforcing_empmr_sd          =   0.0000000000000E+00
(PID.TID 0000.0001) %MON extforcing_empmr_del2        =   0.0000000000000E+00
(PID.TID 0000.0001) %MON advcfl_uvel_max              =   4.1974922665368E-04
(PID.TID 0000.0001) %MON advcfl_vvel_max              =   4.2061914928961E-04
(PID.TID 0000.0001) %MON advcfl_wvel_max              =   1.0013070720250E-03
(PID.TID 0000.0001) %MON advcfl_W_hf_max              =   0.0000000000000E+00
(PID.TID 0000.0001) %MON pe_b_mean                    =   1.0529736093805E-03
(PID.TID 0000.0001) %MON ke_max                       =   1.1898648075467E-02
(PID.TID 0000.0001) %MON ke_mean                      =   1.1964914886843E-04
(PID.TID 0000.0001) %MON ke_vol                       =   6.2001702110790E+17
(PID.TID 0000.0001) %MON vort_r_min                   =  -5.5810230106139E-09
(PID.TID 0000.0001) %MON vort_r_max                   =   5.5810230106139E-09
(PID.TID 0000.0001) %MON vort_a_mean                  =   4.2916559760387E-21
(PID.TID 0000.0001) %MON vort_a_sd                    =   8.8130264267475E-05
(PID.TID 0000.0001) %MON vort_p_mean                  =   4.3511624968410E-21
(PID.TID 0000.0001) %MON vort_p_sd                    =   8.9588954451944E-05
(PID.TID 0000.0001) %MON surfExpan_theta_mean         =  -1.1979011626232E-20
(PID.TID 0000.0001) %MON surfExpan_salt_mean          =   0.0000000000000E+00
(PID.TID 0000.0001) // =======================================================
(PID.TID 0000.0001) // End MONITOR dynamic field statistics
(PID.TID 0000.0001) // =======================================================
 cg2d: Sum(rhs),rhsMax =  -3.00734660277322E+01  3.03560919451960E+03
(PID.TID 0000.0001)                    cg2d_init_res =    4.02685188027903E-01
(PID.TID 0000.0001)                       cg2d_iters =     6
(PID.TID 0000.0001)                         cg2d_res =    5.52875103080531E-16
(PID.TID 0000.0001) // =======================================================
(PID.TID 0000.0001) // Begin MONITOR dynamic field statistics
(PID.TID 0000.0001) // =======================================================
(PID.TID 0000.0001) %MON time_tsnumber                =                     3
(PID.TID 0000.0001) %MON time_secondsf                =   2.7000000000000E+03
(PID.TID 0000.0001) %MON dynstat_eta_max              =   8.0148127516319E+00
(PID.TID 0000.0001) %MON dynstat_eta_min              =   0.0000000000000E+00
(PID.TID 0000.0001) %MON dynstat_eta_mean             =   5.6129684401127E-02
(PID.TID 0000.0001) %MON dynstat_eta_sd               =   5.0412626654246E-01
(PID.TID 0000.0001) %MON dynstat_eta_del2             =   3.8347664115565E-03
(PID.TID 0000.0001) %MON dynstat_uvel_max             =   2.1499414442842E-01
(PID.TID 0000.0001) %MON dynstat_uvel_min             =  -2.1462339688639E-01
(PID.TID 0000.0001) %MON dynstat_uvel_mean            =   4.2473101607677E-05
(PID.TID 0000.0001) %MON dynstat_uvel_sd              =   1.5750258137163E-02
(PID.TID 0000.0001) %MON dynstat_uvel_del2            =   2.3544389327930E-04
(PID.TID 0000.0001) %MON dynstat_vvel_max             =   2.1570937914586E-01
(PID.TID 0000.0001) %MON dynstat_vvel_min             =  -2.1570937914586E-01
(PID.TID 0000.0001) %MON dynstat_vvel_mean            =  -1.9345321174257E-19
(PID.TID 0000.0001) %MON dynstat_vvel_sd              =   1.5815502958347E-02
(PID.TID 0000.0001) %MON dynstat_vvel_del2            =   2.3634357228057E-04
(PID.TID 0000.0001) %MON dynstat_wvel_max             =   3.7236666203039E-04
(PID.TID 0000.0001) %MON dynstat_wvel_min             =  -1.0928034527996E-03
(PID.TID 0000.0001) %MON dynstat_wvel_mean            =   2.1834397574714E-22
(PID.TID 0000.0001) %MON dynstat_wvel_sd              =   6.3443334671239E-05
(PID.TID 0000.0001) %MON dynstat_wvel_del2            =   1.6231759492448E-06
(PID.TID 0000.0001) %MON dynstat_theta_max            =   1.5000000000000E+01
(PID.TID 0000.0001) %MON dynstat_theta_min            =   1.5000000000000E+01
(PID.TID 0000.0001) %MON dynstat_theta_mean           =   1.5000000000000E+01
(PID.TID 0000.0001) %MON dynstat_theta_sd             =   1.7763568394003E-15
(PID.TID 0000.0001) %MON dynstat_theta_del2           =   0.0000000000000E+00
(PID.TID 0000.0001) %MON dynstat_salt_max             =   0.0000000000000E+00
(PID.TID 0000.0001) %MON dynstat_salt_min             =   0.0000000000000E+00
(PID.TID 0000.0001) %MON dynstat_salt_mean            =   0.0000000000000E+00
(PID.TID 0000.0001) %MON dynstat_salt_sd              =   0.0000000000000E+00
(PID.TID 0000.0001) %MON dynstat_salt_del2            =   0.0000000000000E+00
(PID.TID 0000.0001) %MON extforcing_qnet_max          =   0.0000000000000E+00
(PID.TID 0000.0001) %MON extforcing_qnet_min          =   0.0000000000000E+00
(PID.TID 0000.0001) %MON extforcing_qnet_mean         =   0.0000000000000E+00
(PID.TID 0000.0001) %MON extforcing_qnet_sd           =   0.0000000000000E+00
(PID.TID 0000.0001) %MON extforcing_qnet_del2         =   0.0000000000000E+00
(PID.TID 0000.0001) %MON extforcing_qsw_max           =   0.0000000000000E+00
(PID.TID 0000.0001) %MON extforcing_qsw_min           =   0.0000000000000E+00
(PID.TID 0000.0001) %MON extforcing_qsw_mean          =   0.0000000000000E+00
(PID.TID 0000.0001) %MON extforcing_qsw_sd            =   0.0000000000000E+00
(PID.TID 0000.0001) %MON extforcing_qsw_del2          =   0.0000000000000E+00
(PID.TID 0000.0001) %MON extforcing_empmr_max         =   0.0000000000000E+00
(PID.TID 0000.0001) %MON extforcing_empmr_min         =   0.0000000000000E+00
(PID.TID 0000.0001) %MON extforcing_empmr_mean        =   0.0000000000000E+00
(PID.TID 0000.0001) %MON extforcing_empmr_sd          =   0.0000000000000E+00
(PID.TID 0000.0001) %MON extforcing_empmr_del2        =   0.0000000000000E+00
(PID.TID 0000.0001) %MON advcfl_uvel_max              =   6.0107443764961E-04
(PID.TID 0000.0001) %MON advcfl_vvel_max              =   6.0307407027548E-04
(PID.TID 0000.0001) %MON advcfl_wvel_max              =   1.4400045498091E-03
(PID.TID 0000.0001) %MON advcfl_W_hf_max              =   0.0000000000000E+00
(PID.TID 0000.0001) %MON pe_b_mean                    =   9.2467561516088E-04
(PID.TID 0000.0001) %MON ke_max                       =   2.4453280529717E-02
(PID.TID 0000.0001) %MON ke_mean                      =   2.4796152917837E-04
(PID.TID 0000.0001) %MON ke_vol                       =   6.2001702110790E+17
(PID.TID 0000.0001) %MON vort_r_min                   =  -1.4349329898921E-08
(PID.TID 0000.0001) %MON vort_r_max                   =   1.4349329898921E-08
(PID.TID 0000.0001) %MON vort_a_mean                  =   4.2916559760387E-21
(PID.TID 0000.0001) %MON vort_a_sd                    =   8.8130270915891E-05
(PID.TID 0000.0001) %MON vort_p_mean                  =   4.3511624968410E-21
(PID.TID 0000.0001) %MON vort_p_sd                    =   8.9588961082794E-05
(PID.TID 0000.0001) %MON surfExpan_theta_mean         =  -7.9209203992890E-21
(PID.TID 0000.0001) %MON surfExpan_salt_mean          =   0.0000000000000E+00
(PID.TID 0000.0001) // =======================================================
(PID.TID 0000.0001) // End MONITOR dynamic field statistics
(PID.TID 0000.0001) // =======================================================
 cg2d: Sum(rhs),rhsMax =  -3.48930508474014E+01  2.61631722557317E+03
(PID.TID 0000.0001)                    cg2d_init_res =    6.07194059768784E-01
(PID.TID 0000.0001)                       cg2d_iters =     6
(PID.TID 0000.0001)                         cg2d_res =    7.14367946814122E-16
(PID.TID 0000.0001) // =======================================================
(PID.TID 0000.0001) // Begin MONITOR dynamic field statistics
(PID.TID 0000.0001) // =======================================================
(PID.TID 0000.0001) %MON time_tsnumber                =                     4
(PID.TID 0000.0001) %MON time_secondsf                =   3.6000000000000E+03
(PID.TID 0000.0001) %MON dynstat_eta_max              =   6.9123908264667E+00
(PID.TID 0000.0001) %MON dynstat_eta_min              =   0.0000000000000E+00
(PID.TID 0000.0001) %MON dynstat_eta_mean             =   5.6129684401127E-02
(PID.TID 0000.0001) %MON dynstat_eta_sd               =   4.6212364891997E-01
(PID.TID 0000.0001) %MON dynstat_eta_del2             =   2.9915872591200E-03
(PID.TID 0000.0001) %MON dynstat_uvel_max             =   2.6831600277055E-01
(PID.TID 0000.0001) %MON dynstat_uvel_min             =  -2.6757464543610E-01
(PID.TID 0000.0001) %MON dynstat_uvel_mean            =   7.8829981598410E-05
(PID.TID 0000.0001) %MON dynstat_uvel_sd              =   1.9854425355735E-02
(PID.TID 0000.0001) %MON dynstat_uvel_del2            =   2.7563398154491E-04
(PID.TID 0000.0001) %MON dynstat_vvel_max             =   2.6946144983770E-01
(PID.TID 0000.0001) %MON dynstat_vvel_min             =  -2.6946144983770E-01
(PID.TID 0000.0001) %MON dynstat_vvel_mean            =  -5.3607829549445E-19
(PID.TID 0000.0001) %MON dynstat_vvel_sd              =   1.9927142390461E-02
(PID.TID 0000.0001) %MON dynstat_vvel_del2            =   2.7590022325677E-04
(PID.TID 0000.0001) %MON dynstat_wvel_max             =   4.1252199237861E-04
(PID.TID 0000.0001) %MON dynstat_wvel_min             =  -1.3708063007387E-03
(PID.TID 0000.0001) %MON dynstat_wvel_mean            =   8.5931106023240E-23
(PID.TID 0000.0001) %MON dynstat_wvel_sd              =   7.7761670140459E-05
(PID.TID 0000.0001) %MON dynstat_wvel_del2            =   1.7293373367895E-06
(PID.TID 0000.0001) %MON dynstat_theta_max            =   1.5000000000000E+01
(PID.TID 0000.0001) %MON dynstat_theta_min            =   1.5000000000000E+01
(PID.TID 0000.0001) %MON dynstat_theta_mean           =   1.5000000000000E+01
(PID.TID 0000.0001) %MON dynstat_theta_sd             =   1.7763568394003E-15
(PID.TID 0000.0001) %MON dynstat_theta_del2           =   0.0000000000000E+00
(PID.TID 0000.0001) %MON dynstat_salt_max             =   0.0000000000000E+00
(PID.TID 0000.0001) %MON dynstat_salt_min             =   0.0000000000000E+00
(PID.TID 0000.0001) %MON dynstat_salt_mean            =   0.0000000000000E+00
(PID.TID 0000.0001) %MON dynstat_salt_sd              =   0.0000000000000E+00
(PID.TID 0000.0001) %MON dynstat_salt_del2            =   0.0000000000000E+00
(PID.TID 0000.0001) %MON extforcing_qnet_max          =   0.0000000000000E+00
(PID.TID 0000.0001) %MON extforcing_qnet_min          =   0.0000000000000E+00
(PID.TID 0000.0001) %MON extforcing_qnet_mean         =   0.0000000000000E+00
(PID.TID 0000.0001) %MON extforcing_qnet_sd           =   0.0000000000000E+00
(PID.TID 0000.0001) %MON extforcing_qnet_del2         =   0.0000000000000E+00
(PID.TID 0000.0001) %MON extforcing_qsw_max           =   0.0000000000000E+00
(PID.TID 0000.0001) %MON extforcing_qsw_min           =   0.0000000000000E+00
(PID.TID 0000.0001) %MON extforcing_qsw_mean          =   0.0000000000000E+00
(PID.TID 0000.0001) %MON extforcing_qsw_sd            =   0.0000000000000E+00
(PID.TID 0000.0001) %MON extforcing_qsw_del2          =   0.0000000000000E+00
(PID.TID 0000.0001) %MON extforcing_empmr_max         =   0.0000000000000E+00
(PID.TID 0000.0001) %MON extforcing_empmr_min         =   0.0000000000000E+00
(PID.TID 0000.0001) %MON extforcing_empmr_mean        =   0.0000000000000E+00
(PID.TID 0000.0001) %MON extforcing_empmr_sd          =   0.0000000000000E+00
(PID.TID 0000.0001) %MON extforcing_empmr_del2        =   0.0000000000000E+00
(PID.TID 0000.0001) %MON advcfl_uvel_max              =   7.5015015365403E-04
(PID.TID 0000.0001) %MON advcfl_vvel_max              =   7.5335256157811E-04
(PID.TID 0000.0001) %MON advcfl_wvel_max              =   1.8063333391872E-03
(PID.TID 0000.0001) %MON advcfl_W_hf_max              =   0.0000000000000E+00
(PID.TID 0000.0001) %MON pe_b_mean                    =   7.7881909371239E-04
(PID.TID 0000.0001) %MON ke_max                       =   3.8178932415520E-02
(PID.TID 0000.0001) %MON ke_mean                      =   3.9383826619048E-04
(PID.TID 0000.0001) %MON ke_vol                       =   6.2001702110790E+17
(PID.TID 0000.0001) %MON vort_r_min                   =  -2.5829061124163E-08
(PID.TID 0000.0001) %MON vort_r_max                   =   2.5829061124163E-08
(PID.TID 0000.0001) %MON vort_a_mean                  =   4.2916559760387E-21
(PID.TID 0000.0001) %MON vort_a_sd                    =   8.8130280106607E-05
(PID.TID 0000.0001) %MON vort_p_mean                  =   4.3511624968410E-21
(PID.TID 0000.0001) %MON vort_p_sd                    =   8.9588970249227E-05
(PID.TID 0000.0001) %MON surfExpan_theta_mean         =  -8.1723087763052E-21
(PID.TID 0000.0001) %MON surfExpan_salt_mean          =   0.0000000000000E+00
(PID.TID 0000.0001) // =======================================================
(PID.TID 0000.0001) // End MONITOR dynamic field statistics
(PID.TID 0000.0001) // =======================================================
 cg2d: Sum(rhs),rhsMax =  -4.31622804200519E+01  2.11507105501417E+03
(PID.TID 0000.0001)                    cg2d_init_res =    8.78663429110179E-01
(PID.TID 0000.0001)                       cg2d_iters =     6
(PID.TID 0000.0001)                         cg2d_res =    7.92070290135901E-16
(PID.TID 0000.0001) // =======================================================
(PID.TID 0000.0001) // Begin MONITOR dynamic field statistics
(PID.TID 0000.0001) // =======================================================
(PID.TID 0000.0001) %MON time_tsnumber                =                     5
(PID.TID 0000.0001) %MON time_secondsf                =   4.5000000000000E+03
(PID.TID 0000.0001) %MON dynstat_eta_max              =   5.5946538170598E+00
(PID.TID 0000.0001) %MON dynstat_eta_min              =   0.0000000000000E+00
(PID.TID 0000.0001) %MON dynstat_eta_mean             =   5.6129684401127E-02
(PID.TID 0000.0001) %MON dynstat_eta_sd               =   4.1770906966239E-01
(PID.TID 0000.0001) %MON dynstat_eta_del2             =   2.9957884276463E-03
(PID.TID 0000.0001) %MON dynstat_uvel_max             =   3.0752766277061E-01
(PID.TID 0000.0001) %MON dynstat_uvel_min             =  -3.0624825607048E-01
(PID.TID 0000.0001) %MON dynstat_uvel_mean            =   1.2521321958038E-04
(PID.TID 0000.0001) %MON dynstat_uvel_sd              =   2.3133573748718E-02
(PID.TID 0000.0001) %MON dynstat_uvel_del2            =   2.9276191242828E-04
(PID.TID 0000.0001) %MON dynstat_vvel_max             =   3.0904769395021E-01
(PID.TID 0000.0001) %MON dynstat_vvel_min             =  -3.0904769395021E-01
(PID.TID 0000.0001) %MON dynstat_vvel_mean            =  -6.5157981489657E-18
(PID.TID 0000.0001) %MON dynstat_vvel_sd              =   2.3202018601263E-02
(PID.TID 0000.0001) %MON dynstat_vvel_del2            =   2.9205275657334E-04
(PID.TID 0000.0001) %MON dynstat_wvel_max             =   4.0206017368527E-04
(PID.TID 0000.0001) %MON dynstat_wvel_min             =  -1.5791173102926E-03
(PID.TID 0000.0001) %MON dynstat_wvel_mean            =  -7.1162906043674E-22
(PID.TID 0000.0001) %MON dynstat_wvel_sd              =   8.7656611186577E-05
(PID.TID 0000.0001) %MON dynstat_wvel_del2            =   1.8106663442635E-06
(PID.TID 0000.0001) %MON dynstat_theta_max            =   1.5000000000000E+01
(PID.TID 0000.0001) %MON dynstat_theta_min            =   1.5000000000000E+01
(PID.TID 0000.0001) %MON dynstat_theta_mean           =   1.5000000000000E+01
(PID.TID 0000.0001) %MON dynstat_theta_sd             =   1.7763568394003E-15
(PID.TID 0000.0001) %MON dynstat_theta_del2           =   0.0000000000000E+00
(PID.TID 0000.0001) %MON dynstat_salt_max             =   0.0000000000000E+00
(PID.TID 0000.0001) %MON dynstat_salt_min             =   0.0000000000000E+00
(PID.TID 0000.0001) %MON dynstat_salt_mean            =   0.0000000000000E+00
(PID.TID 0000.0001) %MON dynstat_salt_sd              =   0.0000000000000E+00
(PID.TID 0000.0001) %MON dynstat_salt_del2            =   0.0000000000000E+00
(PID.TID 0000.0001) %MON extforcing_qnet_max          =   0.0000000000000E+00
(PID.TID 0000.0001) %MON extforcing_qnet_min          =   0.0000000000000E+00
(PID.TID 0000.0001) %MON extforcing_qnet_mean         =   0.0000000000000E+00
(PID.TID 0000.0001) %MON extforcing_qnet_sd           =   0.0000000000000E+00
(PID.TID 0000.0001) %MON extforcing_qnet_del2         =   0.0000000000000E+00
(PID.TID 0000.0001) %MON extforcing_qsw_max           =   0.0000000000000E+00
(PID.TID 0000.0001) %MON extforcing_qsw_min           =   0.0000000000000E+00
(PID.TID 0000.0001) %MON extforcing_qsw_mean          =   0.0000000000000E+00
(PID.TID 0000.0001) %MON extforcing_qsw_sd            =   0.0000000000000E+00
(PID.TID 0000.0001) %MON extforcing_qsw_del2          =   0.0000000000000E+00
(PID.TID 0000.0001) %MON extforcing_empmr_max         =   0.0000000000000E+00
(PID.TID 0000.0001) %MON extforcing_empmr_min         =   0.0000000000000E+00
(PID.TID 0000.0001) %MON extforcing_empmr_mean        =   0.0000000000000E+00
(PID.TID 0000.0001) %MON extforcing_empmr_sd          =   0.0000000000000E+00
(PID.TID 0000.0001) %MON extforcing_empmr_del2        =   0.0000000000000E+00
(PID.TID 0000.0001) %MON advcfl_uvel_max              =   8.5977698347541E-04
(PID.TID 0000.0001) %MON advcfl_vvel_max              =   8.6402664287389E-04
(PID.TID 0000.0001) %MON advcfl_wvel_max              =   2.0808280809126E-03
(PID.TID 0000.0001) %MON advcfl_W_hf_max              =   0.0000000000000E+00
(PID.TID 0000.0001) %MON pe_b_mean                    =   6.3838075392962E-04
(PID.TID 0000.0001) %MON ke_max                       =   5.0237803803006E-02
(PID.TID 0000.0001) %MON ke_mean                      =   5.3430264546006E-04
(PID.TID 0000.0001) %MON ke_vol                       =   6.2001702110790E+17
(PID.TID 0000.0001) %MON vort_r_min                   =  -3.9402450948835E-08
(PID.TID 0000.0001) %MON vort_r_max                   =   3.9402450948833E-08
(PID.TID 0000.0001) %MON vort_a_mean                  =   1.1704516298287E-21
(PID.TID 0000.0001) %MON vort_a_sd                    =   8.8130291823111E-05
(PID.TID 0000.0001) %MON vort_p_mean                  =   1.1866806809566E-21
(PID.TID 0000.0001) %MON vort_p_sd                    =   8.9588981934774E-05
(PID.TID 0000.0001) %MON surfExpan_theta_mean         =   5.1079119999839E-21
(PID.TID 0000.0001) %MON surfExpan_salt_mean          =   0.0000000000000E+00
(PID.TID 0000.0001) // =======================================================
(PID.TID 0000.0001) // End MONITOR dynamic field statistics
(PID.TID 0000.0001) // =======================================================
 cg2d: Sum(rhs),rhsMax =  -5.86058486199984E+01  1.55771637361301E+03
(PID.TID 0000.0001)                    cg2d_init_res =    1.30230151644918E+00
(PID.TID 0000.0001)                       cg2d_iters =     6
(PID.TID 0000.0001)                         cg2d_res =    1.20507120863908E-15
(PID.TID 0000.0001) // =======================================================
(PID.TID 0000.0001) // Begin MONITOR dynamic field statistics
(PID.TID 0000.0001) // =======================================================
(PID.TID 0000.0001) %MON time_tsnumber                =                     6
(PID.TID 0000.0001) %MON time_secondsf                =   5.4000000000000E+03
(PID.TID 0000.0001) %MON dynstat_eta_max              =   4.1296363196617E+00
(PID.TID 0000.0001) %MON dynstat_eta_min              =   8.1611002025174E-90
(PID.TID 0000.0001) %MON dynstat_eta_mean             =   5.6129684401127E-02
(PID.TID 0000.0001) %MON dynstat_eta_sd               =   3.7698855394405E-01
(PID.TID 0000.0001) %MON dynstat_eta_del2             =   3.1499685666803E-03
(PID.TID 0000.0001) %MON dynstat_uvel_max             =   3.3113626478884E-01
(PID.TID 0000.0001) %MON dynstat_uvel_min             =  -3.2912152651838E-01
(PID.TID 0000.0001) %MON dynstat_uvel_mean            =   1.8156681990883E-04
(PID.TID 0000.0001) %MON dynstat_uvel_sd              =   2.5540660324634E-02
(PID.TID 0000.0001) %MON dynstat_uvel_del2            =   2.9860638182658E-04
(PID.TID 0000.0001) %MON dynstat_vvel_max             =   3.3289719448301E-01
(PID.TID 0000.0001) %MON dynstat_vvel_min             =  -3.3289719448302E-01
(PID.TID 0000.0001) %MON dynstat_vvel_mean            =  -5.5474088873657E-17
(PID.TID 0000.0001) %MON dynstat_vvel_sd              =   2.5590550760773E-02
(PID.TID 0000.0001) %MON dynstat_vvel_del2            =   2.9609658157677E-04
(PID.TID 0000.0001) %MON dynstat_wvel_max             =   3.5744196082765E-04
(PID.TID 0000.0001) %MON dynstat_wvel_min             =  -1.7061145756817E-03
(PID.TID 0000.0001) %MON dynstat_wvel_mean            =   6.4823947308953E-23
(PID.TID 0000.0001) %MON dynstat_wvel_sd              =   9.3138388450702E-05
(PID.TID 0000.0001) %MON dynstat_wvel_del2            =   1.8425955511747E-06
(PID.TID 0000.0001) %MON dynstat_theta_max            =   1.5000000000000E+01
(PID.TID 0000.0001) %MON dynstat_theta_min            =   1.5000000000000E+01
(PID.TID 0000.0001) %MON dynstat_theta_mean           =   1.5000000000000E+01
(PID.TID 0000.0001) %MON dynstat_theta_sd             =   1.7763568394003E-15
(PID.TID 0000.0001) %MON dynstat_theta_del2           =   0.0000000000000E+00
(PID.TID 0000.0001) %MON dynstat_salt_max             =   0.0000000000000E+00
(PID.TID 0000.0001) %MON dynstat_salt_min             =   0.0000000000000E+00
(PID.TID 0000.0001) %MON dynstat_salt_mean            =   0.0000000000000E+00
(PID.TID 0000.0001) %MON dynstat_salt_sd              =   0.0000000000000E+00
(PID.TID 0000.0001) %MON dynstat_salt_del2            =   0.0000000000000E+00
(PID.TID 0000.0001) %MON extforcing_qnet_max          =   0.0000000000000E+00
(PID.TID 0000.0001) %MON extforcing_qnet_min          =   0.0000000000000E+00
(PID.TID 0000.0001) %MON extforcing_qnet_mean         =   0.0000000000000E+00
(PID.TID 0000.0001) %MON extforcing_qnet_sd           =   0.0000000000000E+00
(PID.TID 0000.0001) %MON extforcing_qnet_del2         =   0.0000000000000E+00
(PID.TID 0000.0001) %MON extforcing_qsw_max           =   0.0000000000000E+00
(PID.TID 0000.0001) %MON extforcing_qsw_min           =   0.0000000000000E+00
(PID.TID 0000.0001) %MON extforcing_qsw_mean          =   0.0000000000000E+00
(PID.TID 0000.0001) %MON extforcing_qsw_sd            =   0.0000000000000E+00
(PID.TID 0000.0001) %MON extforcing_qsw_del2          =   0.0000000000000E+00
(PID.TID 0000.0001) %MON extforcing_empmr_max         =   0.0000000000000E+00
(PID.TID 0000.0001) %MON extforcing_empmr_min         =   0.0000000000000E+00
(PID.TID 0000.0001) %MON extforcing_empmr_mean        =   0.0000000000000E+00
(PID.TID 0000.0001) %MON extforcing_empmr_sd          =   0.0000000000000E+00
(PID.TID 0000.0001) %MON extforcing_empmr_del2        =   0.0000000000000E+00
(PID.TID 0000.0001) %MON advcfl_uvel_max              =   9.2578123312382E-04
(PID.TID 0000.0001) %MON advcfl_vvel_max              =   9.3070438965202E-04
(PID.TID 0000.0001) %MON advcfl_wvel_max              =   2.2481744042657E-03
(PID.TID 0000.0001) %MON advcfl_W_hf_max              =   0.0000000000000E+00
(PID.TID 0000.0001) %MON pe_b_mean                    =   5.2208196020142E-04
(PID.TID 0000.0001) %MON ke_max                       =   5.8211563324146E-02
(PID.TID 0000.0001) %MON ke_mean                      =   6.5063290437483E-04
(PID.TID 0000.0001) %MON ke_vol                       =   6.2001702110790E+17
(PID.TID 0000.0001) %MON vort_r_min                   =  -5.4348532761459E-08
(PID.TID 0000.0001) %MON vort_r_max                   =   5.4348532761456E-08
(PID.TID 0000.0001) %MON vort_a_mean                  =   4.2916559760387E-21
(PID.TID 0000.0001) %MON vort_a_sd                    =   8.8130306042042E-05
(PID.TID 0000.0001) %MON vort_p_mean                  =   4.3511624968410E-21
(PID.TID 0000.0001) %MON vort_p_sd                    =   8.9588996116136E-05
(PID.TID 0000.0001) %MON surfExpan_theta_mean         =  -2.2130608044889E-20
(PID.TID 0000.0001) %MON surfExpan_salt_mean          =   0.0000000000000E+00
(PID.TID 0000.0001) // =======================================================
(PID.TID 0000.0001) // End MONITOR dynamic field statistics
(PID.TID 0000.0001) // =======================================================
 cg2d: Sum(rhs),rhsMax =  -8.72086204622248E+01  1.04681497655843E+03
(PID.TID 0000.0001)                    cg2d_init_res =    2.00841806141466E+00
(PID.TID 0000.0001)                       cg2d_iters =     6
(PID.TID 0000.0001)                         cg2d_res =    2.24728969137556E-15
(PID.TID 0000.0001) // =======================================================
(PID.TID 0000.0001) // Begin MONITOR dynamic field statistics
(PID.TID 0000.0001) // =======================================================
(PID.TID 0000.0001) %MON time_tsnumber                =                     7
(PID.TID 0000.0001) %MON time_secondsf                =   6.3000000000000E+03
(PID.TID 0000.0001) %MON dynstat_eta_max              =   2.8096014034301E+00
(PID.TID 0000.0001) %MON dynstat_eta_min              =   1.4745889042363E-86
(PID.TID 0000.0001) %MON dynstat_eta_mean             =   5.6129684401127E-02
(PID.TID 0000.0001) %MON dynstat_eta_sd               =   3.4592579416323E-01
(PID.TID 0000.0001) %MON dynstat_eta_del2             =   3.3225716883632E-03
(PID.TID 0000.0001) %MON dynstat_uvel_max             =   3.3890524532326E-01
(PID.TID 0000.0001) %MON dynstat_uvel_min             =  -3.3594340995247E-01
(PID.TID 0000.0001) %MON dynstat_uvel_mean            =   2.4782033315791E-04
(PID.TID 0000.0001) %MON dynstat_uvel_sd              =   2.7097928625562E-02
(PID.TID 0000.0001) %MON dynstat_uvel_del2            =   3.1219809835688E-04
(PID.TID 0000.0001) %MON dynstat_vvel_max             =   3.4070999531055E-01
(PID.TID 0000.0001) %MON dynstat_vvel_min             =  -3.4070999531055E-01
(PID.TID 0000.0001) %MON dynstat_vvel_mean            =  -4.1513680681687E-16
(PID.TID 0000.0001) %MON dynstat_vvel_sd              =   2.7112428361289E-02
(PID.TID 0000.0001) %MON dynstat_vvel_del2            =   3.0848411270277E-04
(PID.TID 0000.0001) %MON dynstat_wvel_max             =   3.4952797867146E-04
(PID.TID 0000.0001) %MON dynstat_wvel_min             =  -1.7440300893813E-03
(PID.TID 0000.0001) %MON dynstat_wvel_mean            =   7.4919110908459E-22
(PID.TID 0000.0001) %MON dynstat_wvel_sd              =   9.4496823691812E-05
(PID.TID 0000.0001) %MON dynstat_wvel_del2            =   1.7457466723627E-06
(PID.TID 0000.0001) %MON dynstat_theta_max            =   1.5000000000000E+01
(PID.TID 0000.0001) %MON dynstat_theta_min            =   1.5000000000000E+01
(PID.TID 0000.0001) %MON dynstat_theta_mean           =   1.5000000000000E+01
(PID.TID 0000.0001) %MON dynstat_theta_sd             =   1.7763568394003E-15
(PID.TID 0000.0001) %MON dynstat_theta_del2           =   0.0000000000000E+00
(PID.TID 0000.0001) %MON dynstat_salt_max             =   0.0000000000000E+00
(PID.TID 0000.0001) %MON dynstat_salt_min             =   0.0000000000000E+00
(PID.TID 0000.0001) %MON dynstat_salt_mean            =   0.0000000000000E+00
(PID.TID 0000.0001) %MON dynstat_salt_sd              =   0.0000000000000E+00
(PID.TID 0000.0001) %MON dynstat_salt_del2            =   0.0000000000000E+00
(PID.TID 0000.0001) %MON extforcing_qnet_max          =   0.0000000000000E+00
(PID.TID 0000.0001) %MON extforcing_qnet_min          =   0.0000000000000E+00
(PID.TID 0000.0001) %MON extforcing_qnet_mean         =   0.0000000000000E+00
(PID.TID 0000.0001) %MON extforcing_qnet_sd           =   0.0000000000000E+00
(PID.TID 0000.0001) %MON extforcing_qnet_del2         =   0.0000000000000E+00
(PID.TID 0000.0001) %MON extforcing_qsw_max           =   0.0000000000000E+00
(PID.TID 0000.0001) %MON extforcing_qsw_min           =   0.0000000000000E+00
(PID.TID 0000.0001) %MON extforcing_qsw_mean          =   0.0000000000000E+00
(PID.TID 0000.0001) %MON extforcing_qsw_sd            =   0.0000000000000E+00
(PID.TID 0000.0001) %MON extforcing_qsw_del2          =   0.0000000000000E+00
(PID.TID 0000.0001) %MON extforcing_empmr_max         =   0.0000000000000E+00
(PID.TID 0000.0001) %MON extforcing_empmr_min         =   0.0000000000000E+00
(PID.TID 0000.0001) %MON extforcing_empmr_mean        =   0.0000000000000E+00
(PID.TID 0000.0001) %MON extforcing_empmr_sd          =   0.0000000000000E+00
(PID.TID 0000.0001) %MON extforcing_empmr_del2        =   0.0000000000000E+00
(PID.TID 0000.0001) %MON advcfl_uvel_max              =   9.4750152517295E-04
(PID.TID 0000.0001) %MON advcfl_vvel_max              =   9.5254719321471E-04
(PID.TID 0000.0001) %MON advcfl_wvel_max              =   2.2981362817615E-03
(PID.TID 0000.0001) %MON advcfl_W_hf_max              =   0.0000000000000E+00
(PID.TID 0000.0001) %MON pe_b_mean                    =   4.4137947499741E-04
(PID.TID 0000.0001) %MON ke_max                       =   6.0644823525365E-02
(PID.TID 0000.0001) %MON ke_mean                      =   7.3137127853369E-04
(PID.TID 0000.0001) %MON ke_vol                       =   6.2001702110790E+17
(PID.TID 0000.0001) %MON vort_r_min                   =  -6.9894845171734E-08
(PID.TID 0000.0001) %MON vort_r_max                   =   6.9894845171731E-08
(PID.TID 0000.0001) %MON vort_a_mean                  =   4.2916559760387E-21
(PID.TID 0000.0001) %MON vort_a_sd                    =   8.8130322733009E-05
(PID.TID 0000.0001) %MON vort_p_mean                  =   4.3511624968410E-21
(PID.TID 0000.0001) %MON vort_p_sd                    =   8.9589012763003E-05
(PID.TID 0000.0001) %MON surfExpan_theta_mean         =  -1.1837329942369E-20
(PID.TID 0000.0001) %MON surfExpan_salt_mean          =   0.0000000000000E+00
(PID.TID 0000.0001) // =======================================================
(PID.TID 0000.0001) // End MONITOR dynamic field statistics
(PID.TID 0000.0001) // =======================================================
 cg2d: Sum(rhs),rhsMax =  -8.68497962076814E+01  1.05113994472197E+03
(PID.TID 0000.0001)                    cg2d_init_res =    1.98778247650248E+00
(PID.TID 0000.0001)                       cg2d_iters =     6
(PID.TID 0000.0001)                         cg2d_res =    2.59385001223578E-15
(PID.TID 0000.0001) // =======================================================
(PID.TID 0000.0001) // Begin MONITOR dynamic field statistics
(PID.TID 0000.0001) // =======================================================
(PID.TID 0000.0001) %MON time_tsnumber                =                     8
(PID.TID 0000.0001) %MON time_secondsf                =   7.2000000000000E+03
(PID.TID 0000.0001) %MON dynstat_eta_max              =   2.8170301413026E+00
(PID.TID 0000.0001) %MON dynstat_eta_min              =   3.1473430096726E-84
(PID.TID 0000.0001) %MON dynstat_eta_mean             =   5.6129684401127E-02
(PID.TID 0000.0001) %MON dynstat_eta_sd               =   3.2861158573387E-01
(PID.TID 0000.0001) %MON dynstat_eta_del2             =   4.1796955397399E-03
(PID.TID 0000.0001) %MON dynstat_uvel_max             =   3.3188186515806E-01
(PID.TID 0000.0001) %MON dynstat_uvel_min             =  -3.2777467456041E-01
(PID.TID 0000.0001) %MON dynstat_uvel_mean            =   3.2388743760175E-04
(PID.TID 0000.0001) %MON dynstat_uvel_sd              =   2.7892472524859E-02
(PID.TID 0000.0001) %MON dynstat_uvel_del2            =   3.1993068716342E-04
(PID.TID 0000.0001) %MON dynstat_vvel_max             =   3.3349529190956E-01
(PID.TID 0000.0001) %MON dynstat_vvel_min             =  -3.3349529190956E-01
(PID.TID 0000.0001) %MON dynstat_vvel_mean            =  -2.6389632256899E-15
(PID.TID 0000.0001) %MON dynstat_vvel_sd              =   2.7852151910378E-02
(PID.TID 0000.0001) %MON dynstat_vvel_del2            =   3.1497468494731E-04
(PID.TID 0000.0001) %MON dynstat_wvel_max             =   3.5773766584218E-04
(PID.TID 0000.0001) %MON dynstat_wvel_min             =  -1.6896413437101E-03
(PID.TID 0000.0001) %MON dynstat_wvel_mean            =  -1.0640125153785E-21
(PID.TID 0000.0001) %MON dynstat_wvel_sd              =   9.2326859040813E-05
(PID.TID 0000.0001) %MON dynstat_wvel_del2            =   1.6497892448047E-06
(PID.TID 0000.0001) %MON dynstat_theta_max            =   1.5000000000000E+01
(PID.TID 0000.0001) %MON dynstat_theta_min            =   1.5000000000000E+01
(PID.TID 0000.0001) %MON dynstat_theta_mean           =   1.5000000000000E+01
(PID.TID 0000.0001) %MON dynstat_theta_sd             =   1.7763568394003E-15
(PID.TID 0000.0001) %MON dynstat_theta_del2           =   0.0000000000000E+00
(PID.TID 0000.0001) %MON dynstat_salt_max             =   0.0000000000000E+00
(PID.TID 0000.0001) %MON dynstat_salt_min             =   0.0000000000000E+00
(PID.TID 0000.0001) %MON dynstat_salt_mean            =   0.0000000000000E+00
(PID.TID 0000.0001) %MON dynstat_salt_sd              =   0.0000000000000E+00
(PID.TID 0000.0001) %MON dynstat_salt_del2            =   0.0000000000000E+00
(PID.TID 0000.0001) %MON extforcing_qnet_max          =   0.0000000000000E+00
(PID.TID 0000.0001) %MON extforcing_qnet_min          =   0.0000000000000E+00
(PID.TID 0000.0001) %MON extforcing_qnet_mean         =   0.0000000000000E+00
(PID.TID 0000.0001) %MON extforcing_qnet_sd           =   0.0000000000000E+00
(PID.TID 0000.0001) %MON extforcing_qnet_del2         =   0.0000000000000E+00
(PID.TID 0000.0001) %MON extforcing_qsw_max           =   0.0000000000000E+00
(PID.TID 0000.0001) %MON extforcing_qsw_min           =   0.0000000000000E+00
(PID.TID 0000.0001) %MON extforcing_qsw_mean          =   0.0000000000000E+00
(PID.TID 0000.0001) %MON extforcing_qsw_sd            =   0.0000000000000E+00
(PID.TID 0000.0001) %MON extforcing_qsw_del2          =   0.0000000000000E+00
(PID.TID 0000.0001) %MON extforcing_empmr_max         =   0.0000000000000E+00
(PID.TID 0000.0001) %MON extforcing_empmr_min         =   0.0000000000000E+00
(PID.TID 0000.0001) %MON extforcing_empmr_mean        =   0.0000000000000E+00
(PID.TID 0000.0001) %MON extforcing_empmr_sd          =   0.0000000000000E+00
(PID.TID 0000.0001) %MON extforcing_empmr_del2        =   0.0000000000000E+00
(PID.TID 0000.0001) %MON advcfl_uvel_max              =   9.2786576116448E-04
(PID.TID 0000.0001) %MON advcfl_vvel_max              =   9.3237653321332E-04
(PID.TID 0000.0001) %MON advcfl_wvel_max              =   2.2264673636004E-03
(PID.TID 0000.0001) %MON advcfl_W_hf_max              =   0.0000000000000E+00
(PID.TID 0000.0001) %MON pe_b_mean                    =   3.9940660280926E-04
(PID.TID 0000.0001) %MON ke_max                       =   5.7346490223654E-02
(PID.TID 0000.0001) %MON ke_mean                      =   7.7338275026621E-04
(PID.TID 0000.0001) %MON ke_vol                       =   6.2001702110790E+17
(PID.TID 0000.0001) %MON vort_r_min                   =  -8.5277061189070E-08
(PID.TID 0000.0001) %MON vort_r_max                   =   8.5277061189066E-08
(PID.TID 0000.0001) %MON vort_a_mean                  =   4.2916559760387E-21
(PID.TID 0000.0001) %MON vort_a_sd                    =   8.8130341858447E-05
(PID.TID 0000.0001) %MON vort_p_mean                  =   4.3511624968410E-21
(PID.TID 0000.0001) %MON vort_p_sd                    =   8.9589031837908E-05
(PID.TID 0000.0001) %MON surfExpan_theta_mean         =   1.6830094943943E-20
(PID.TID 0000.0001) %MON surfExpan_salt_mean          =   0.0000000000000E+00
(PID.TID 0000.0001) // =======================================================
(PID.TID 0000.0001) // End MONITOR dynamic field statistics
(PID.TID 0000.0001) // =======================================================
 cg2d: Sum(rhs),rhsMax =  -8.82100238260454E+01  1.03493102059339E+03
(PID.TID 0000.0001)                    cg2d_init_res =    1.93883517241470E+00
(PID.TID 0000.0001)                       cg2d_iters =     6
(PID.TID 0000.0001)                         cg2d_res =    2.86341502168721E-15
(PID.TID 0000.0001) // =======================================================
(PID.TID 0000.0001) // Begin MONITOR dynamic field statistics
(PID.TID 0000.0001) // =======================================================
(PID.TID 0000.0001) %MON time_tsnumber                =                     9
(PID.TID 0000.0001) %MON time_secondsf                =   8.1000000000000E+03
(PID.TID 0000.0001) %MON dynstat_eta_max              =   2.7770282087091E+00
(PID.TID 0000.0001) %MON dynstat_eta_min              =  -4.5696743327914E-01
(PID.TID 0000.0001) %MON dynstat_eta_mean             =   5.6129684401127E-02
(PID.TID 0000.0001) %MON dynstat_eta_sd               =   3.2537955546546E-01
(PID.TID 0000.0001) %MON dynstat_eta_del2             =   5.0675895287533E-03
(PID.TID 0000.0001) %MON dynstat_uvel_max             =   3.1222879020787E-01
(PID.TID 0000.0001) %MON dynstat_uvel_min             =  -3.0683105593246E-01
(PID.TID 0000.0001) %MON dynstat_uvel_mean            =   4.0966429779297E-04
(PID.TID 0000.0001) %MON dynstat_uvel_sd              =   2.8067315778693E-02
(PID.TID 0000.0001) %MON dynstat_uvel_del2            =   3.1617332784785E-04
(PID.TID 0000.0001) %MON dynstat_vvel_max             =   3.1341138892233E-01
(PID.TID 0000.0001) %MON dynstat_vvel_min             =  -3.1341138892232E-01
(PID.TID 0000.0001) %MON dynstat_vvel_mean            =  -1.4651971682940E-14
(PID.TID 0000.0001) %MON dynstat_vvel_sd              =   2.7950257663435E-02
(PID.TID 0000.0001) %MON dynstat_vvel_del2            =   3.0935587935449E-04
(PID.TID 0000.0001) %MON dynstat_wvel_max             =   3.4340101031094E-04
(PID.TID 0000.0001) %MON dynstat_wvel_min             =  -1.5449689629112E-03
(PID.TID 0000.0001) %MON dynstat_wvel_mean            =  -3.7266273311917E-22
(PID.TID 0000.0001) %MON dynstat_wvel_sd              =   8.7568184663814E-05
(PID.TID 0000.0001) %MON dynstat_wvel_del2            =   1.5480964915907E-06
(PID.TID 0000.0001) %MON dynstat_theta_max            =   1.5000000000000E+01
(PID.TID 0000.0001) %MON dynstat_theta_min            =   1.5000000000000E+01
(PID.TID 0000.0001) %MON dynstat_theta_mean           =   1.5000000000000E+01
(PID.TID 0000.0001) %MON dynstat_theta_sd             =   1.7763568394003E-15
(PID.TID 0000.0001) %MON dynstat_theta_del2           =   0.0000000000000E+00
(PID.TID 0000.0001) %MON dynstat_salt_max             =   0.0000000000000E+00
(PID.TID 0000.0001) %MON dynstat_salt_min             =   0.0000000000000E+00
(PID.TID 0000.0001) %MON dynstat_salt_mean            =   0.0000000000000E+00
(PID.TID 0000.0001) %MON dynstat_salt_sd              =   0.0000000000000E+00
(PID.TID 0000.0001) %MON dynstat_salt_del2            =   0.0000000000000E+00
(PID.TID 0000.0001) %MON extforcing_qnet_max          =   0.0000000000000E+00
(PID.TID 0000.0001) %MON extforcing_qnet_min          =   0.0000000000000E+00
(PID.TID 0000.0001) %MON extforcing_qnet_mean         =   0.0000000000000E+00
(PID.TID 0000.0001) %MON extforcing_qnet_sd           =   0.0000000000000E+00
(PID.TID 0000.0001) %MON extforcing_qnet_del2         =   0.0000000000000E+00
(PID.TID 0000.0001) %MON extforcing_qsw_max           =   0.0000000000000E+00
(PID.TID 0000.0001) %MON extforcing_qsw_min           =   0.0000000000000E+00
(PID.TID 0000.0001) %MON extforcing_qsw_mean          =   0.0000000000000E+00
(PID.TID 0000.0001) %MON extforcing_qsw_sd            =   0.0000000000000E+00
(PID.TID 0000.0001) %MON extforcing_qsw_del2          =   0.0000000000000E+00
(PID.TID 0000.0001) %MON extforcing_empmr_max         =   0.0000000000000E+00
(PID.TID 0000.0001) %MON extforcing_empmr_min         =   0.0000000000000E+00
(PID.TID 0000.0001) %MON extforcing_empmr_mean        =   0.0000000000000E+00
(PID.TID 0000.0001) %MON extforcing_empmr_sd          =   0.0000000000000E+00
(PID.TID 0000.0001) %MON extforcing_empmr_del2        =   0.0000000000000E+00
(PID.TID 0000.0001) %MON advcfl_uvel_max              =   8.7292026018268E-04
(PID.TID 0000.0001) %MON advcfl_vvel_max              =   8.7622653561241E-04
(PID.TID 0000.0001) %MON advcfl_wvel_max              =   2.0358302585945E-03
(PID.TID 0000.0001) %MON advcfl_W_hf_max              =   0.0000000000000E+00
(PID.TID 0000.0001) %MON pe_b_mean                    =   3.9181021180041E-04
(PID.TID 0000.0001) %MON ke_max                       =   4.9353584074385E-02
(PID.TID 0000.0001) %MON ke_mean                      =   7.8101805723196E-04
(PID.TID 0000.0001) %MON ke_vol                       =   6.2001702110790E+17
(PID.TID 0000.0001) %MON vort_r_min                   =  -9.9800728797181E-08
(PID.TID 0000.0001) %MON vort_r_max                   =   9.9800728797176E-08
(PID.TID 0000.0001) %MON vort_a_mean                  =   6.6325592356962E-21
(PID.TID 0000.0001) %MON vort_a_sd                    =   8.8130363373576E-05
(PID.TID 0000.0001) %MON vort_p_mean                  =   6.7245238587542E-21
(PID.TID 0000.0001) %MON vort_p_sd                    =   8.9589053296191E-05
(PID.TID 0000.0001) %MON surfExpan_theta_mean         =  -1.7848597495996E-20
(PID.TID 0000.0001) %MON surfExpan_salt_mean          =   0.0000000000000E+00
(PID.TID 0000.0001) // =======================================================
(PID.TID 0000.0001) // End MONITOR dynamic field statistics
(PID.TID 0000.0001) // =======================================================
 cg2d: Sum(rhs),rhsMax =  -9.21320951313321E+01  9.90873917007132E+02
(PID.TID 0000.0001)                    cg2d_init_res =    1.89586432503203E+00
(PID.TID 0000.0001)                       cg2d_iters =     6
(PID.TID 0000.0001)                         cg2d_res =    3.02755303475938E-15
(PID.TID 0000.0001) // =======================================================
(PID.TID 0000.0001) // Begin MONITOR dynamic field statistics
(PID.TID 0000.0001) // =======================================================
(PID.TID 0000.0001) %MON time_tsnumber                =                    10
(PID.TID 0000.0001) %MON time_secondsf                =   9.0000000000000E+03
(PID.TID 0000.0001) %MON dynstat_eta_max              =   2.6598543273464E+00
(PID.TID 0000.0001) %MON dynstat_eta_min              =  -1.7452828494198E+00
(PID.TID 0000.0001) %MON dynstat_eta_mean             =   5.6129684401127E-02
(PID.TID 0000.0001) %MON dynstat_eta_sd               =   3.3268837430910E-01
(PID.TID 0000.0001) %MON dynstat_eta_del2             =   5.6621892351217E-03
(PID.TID 0000.0001) %MON dynstat_uvel_max             =   2.8285618407792E-01
(PID.TID 0000.0001) %MON dynstat_uvel_min             =  -2.7612265650385E-01
(PID.TID 0000.0001) %MON dynstat_uvel_mean            =   5.0502771607918E-04
(PID.TID 0000.0001) %MON dynstat_uvel_sd              =   2.7805412513003E-02
(PID.TID 0000.0001) %MON dynstat_uvel_del2            =   3.1192391420498E-04
(PID.TID 0000.0001) %MON dynstat_vvel_max             =   2.8340177356289E-01
(PID.TID 0000.0001) %MON dynstat_vvel_min             =  -2.8340177356287E-01
(PID.TID 0000.0001) %MON dynstat_vvel_mean            =  -7.2479301798178E-14
(PID.TID 0000.0001) %MON dynstat_vvel_sd              =   2.7587728104618E-02
(PID.TID 0000.0001) %MON dynstat_vvel_del2            =   3.0317499274308E-04
(PID.TID 0000.0001) %MON dynstat_wvel_max             =   3.4932293985150E-04
(PID.TID 0000.0001) %MON dynstat_wvel_min             =  -1.3179541840680E-03
(PID.TID 0000.0001) %MON dynstat_wvel_mean            =   3.1232524198603E-22
(PID.TID 0000.0001) %MON dynstat_wvel_sd              =   8.1478560353427E-05
(PID.TID 0000.0001) %MON dynstat_wvel_del2            =   1.5330858762394E-06
(PID.TID 0000.0001) %MON dynstat_theta_max            =   1.5000000000000E+01
(PID.TID 0000.0001) %MON dynstat_theta_min            =   1.5000000000000E+01
(PID.TID 0000.0001) %MON dynstat_theta_mean           =   1.5000000000000E+01
(PID.TID 0000.0001) %MON dynstat_theta_sd             =   1.7763568394003E-15
(PID.TID 0000.0001) %MON dynstat_theta_del2           =   0.0000000000000E+00
(PID.TID 0000.0001) %MON dynstat_salt_max             =   0.0000000000000E+00
(PID.TID 0000.0001) %MON dynstat_salt_min             =   0.0000000000000E+00
(PID.TID 0000.0001) %MON dynstat_salt_mean            =   0.0000000000000E+00
(PID.TID 0000.0001) %MON dynstat_salt_sd              =   0.0000000000000E+00
(PID.TID 0000.0001) %MON dynstat_salt_del2            =   0.0000000000000E+00
(PID.TID 0000.0001) %MON extforcing_qnet_max          =   0.0000000000000E+00
(PID.TID 0000.0001) %MON extforcing_qnet_min          =   0.0000000000000E+00
(PID.TID 0000.0001) %MON extforcing_qnet_mean         =   0.0000000000000E+00
(PID.TID 0000.0001) %MON extforcing_qnet_sd           =   0.0000000000000E+00
(PID.TID 0000.0001) %MON extforcing_qnet_del2         =   0.0000000000000E+00
(PID.TID 0000.0001) %MON extforcing_qsw_max           =   0.0000000000000E+00
(PID.TID 0000.0001) %MON extforcing_qsw_min           =   0.0000000000000E+00
(PID.TID 0000.0001) %MON extforcing_qsw_mean          =   0.0000000000000E+00
(PID.TID 0000.0001) %MON extforcing_qsw_sd            =   0.0000000000000E+00
(PID.TID 0000.0001) %MON extforcing_qsw_del2          =   0.0000000000000E+00
(PID.TID 0000.0001) %MON extforcing_empmr_max         =   0.0000000000000E+00
(PID.TID 0000.0001) %MON extforcing_empmr_min         =   0.0000000000000E+00
(PID.TID 0000.0001) %MON extforcing_empmr_mean        =   0.0000000000000E+00
(PID.TID 0000.0001) %MON extforcing_empmr_sd          =   0.0000000000000E+00
(PID.TID 0000.0001) %MON extforcing_empmr_del2        =   0.0000000000000E+00
(PID.TID 0000.0001) %MON advcfl_uvel_max              =   7.9080117382896E-04
(PID.TID 0000.0001) %MON advcfl_vvel_max              =   7.9232651719930E-04
(PID.TID 0000.0001) %MON advcfl_wvel_max              =   1.7366892615831E-03
(PID.TID 0000.0001) %MON advcfl_W_hf_max              =   0.0000000000000E+00
(PID.TID 0000.0001) %MON pe_b_mean                    =   4.0909555274663E-04
(PID.TID 0000.0001) %MON ke_max                       =   4.0173571311261E-02
(PID.TID 0000.0001) %MON ke_mean                      =   7.6376902554705E-04
(PID.TID 0000.0001) %MON ke_vol                       =   6.2001702110790E+17
(PID.TID 0000.0001) %MON vort_r_min                   =  -1.1289632208351E-07
(PID.TID 0000.0001) %MON vort_r_max                   =   1.1289632208350E-07
(PID.TID 0000.0001) %MON vort_a_mean                  =   3.1212043462100E-21
(PID.TID 0000.0001) %MON vort_a_sd                    =   8.8130387226345E-05
(PID.TID 0000.0001) %MON vort_p_mean                  =   3.1644818158844E-21
(PID.TID 0000.0001) %MON vort_p_sd                    =   8.9589077085938E-05
(PID.TID 0000.0001) %MON surfExpan_theta_mean         =  -7.1433384004507E-21
(PID.TID 0000.0001) %MON surfExpan_salt_mean          =   0.0000000000000E+00
(PID.TID 0000.0001) // =======================================================
(PID.TID 0000.0001) // End MONITOR dynamic field statistics
(PID.TID 0000.0001) // =======================================================
 cg2d: Sum(rhs),rhsMax =  -8.46486099877225E+01  1.07847358625378E+03
(PID.TID 0000.0001)                    cg2d_init_res =    1.61000739950021E+00
(PID.TID 0000.0001)                       cg2d_iters =     6
(PID.TID 0000.0001)                         cg2d_res =    3.35279461678297E-15
(PID.TID 0000.0001) // =======================================================
(PID.TID 0000.0001) // Begin MONITOR dynamic field statistics
(PID.TID 0000.0001) // =======================================================
(PID.TID 0000.0001) %MON time_tsnumber                =                    11
(PID.TID 0000.0001) %MON time_secondsf                =   9.9000000000000E+03
(PID.TID 0000.0001) %MON dynstat_eta_max              =   2.5816370652503E+00
(PID.TID 0000.0001) %MON dynstat_eta_min              =  -2.7987112585676E+00
(PID.TID 0000.0001) %MON dynstat_eta_mean             =   5.6129684401127E-02
(PID.TID 0000.0001) %MON dynstat_eta_sd               =   3.4526525311891E-01
(PID.TID 0000.0001) %MON dynstat_eta_del2             =   5.9981605098549E-03
(PID.TID 0000.0001) %MON dynstat_uvel_max             =   2.7244497874260E-01
(PID.TID 0000.0001) %MON dynstat_uvel_min             =  -2.5821158029150E-01
(PID.TID 0000.0001) %MON dynstat_uvel_mean            =   6.0983309111914E-04
(PID.TID 0000.0001) %MON dynstat_uvel_sd              =   2.7305537007454E-02
(PID.TID 0000.0001) %MON dynstat_uvel_del2            =   3.0439823372401E-04
(PID.TID 0000.0001) %MON dynstat_vvel_max             =   2.6684386792196E-01
(PID.TID 0000.0001) %MON dynstat_vvel_min             =  -2.6684386792195E-01
(PID.TID 0000.0001) %MON dynstat_vvel_mean            =  -3.2369758849760E-13
(PID.TID 0000.0001) %MON dynstat_vvel_sd              =   2.6962566927131E-02
(PID.TID 0000.0001) %MON dynstat_vvel_del2            =   2.9406277461712E-04
(PID.TID 0000.0001) %MON dynstat_wvel_max             =   3.3720347005376E-04
(PID.TID 0000.0001) %MON dynstat_wvel_min             =  -1.0229978362605E-03
(PID.TID 0000.0001) %MON dynstat_wvel_mean            =   4.6496270096790E-22
(PID.TID 0000.0001) %MON dynstat_wvel_sd              =   7.5503838155873E-05
(PID.TID 0000.0001) %MON dynstat_wvel_del2            =   1.5352500326519E-06
(PID.TID 0000.0001) %MON dynstat_theta_max            =   1.5000000000000E+01
(PID.TID 0000.0001) %MON dynstat_theta_min            =   1.5000000000000E+01
(PID.TID 0000.0001) %MON dynstat_theta_mean           =   1.5000000000000E+01
(PID.TID 0000.0001) %MON dynstat_theta_sd             =   1.7763568394003E-15
(PID.TID 0000.0001) %MON dynstat_theta_del2           =   0.0000000000000E+00
(PID.TID 0000.0001) %MON dynstat_salt_max             =   0.0000000000000E+00
(PID.TID 0000.0001) %MON dynstat_salt_min             =   0.0000000000000E+00
(PID.TID 0000.0001) %MON dynstat_salt_mean            =   0.0000000000000E+00
(PID.TID 0000.0001) %MON dynstat_salt_sd              =   0.0000000000000E+00
(PID.TID 0000.0001) %MON dynstat_salt_del2            =   0.0000000000000E+00
(PID.TID 0000.0001) %MON extforcing_qnet_max          =   0.0000000000000E+00
(PID.TID 0000.0001) %MON extforcing_qnet_min          =   0.0000000000000E+00
(PID.TID 0000.0001) %MON extforcing_qnet_mean         =   0.0000000000000E+00
(PID.TID 0000.0001) %MON extforcing_qnet_sd           =   0.0000000000000E+00
(PID.TID 0000.0001) %MON extforcing_qnet_del2         =   0.0000000000000E+00
(PID.TID 0000.0001) %MON extforcing_qsw_max           =   0.0000000000000E+00
(PID.TID 0000.0001) %MON extforcing_qsw_min           =   0.0000000000000E+00
(PID.TID 0000.0001) %MON extforcing_qsw_mean          =   0.0000000000000E+00
(PID.TID 0000.0001) %MON extforcing_qsw_sd            =   0.0000000000000E+00
(PID.TID 0000.0001) %MON extforcing_qsw_del2          =   0.0000000000000E+00
(PID.TID 0000.0001) %MON extforcing_empmr_max         =   0.0000000000000E+00
(PID.TID 0000.0001) %MON extforcing_empmr_min         =   0.0000000000000E+00
(PID.TID 0000.0001) %MON extforcing_empmr_mean        =   0.0000000000000E+00
(PID.TID 0000.0001) %MON extforcing_empmr_sd          =   0.0000000000000E+00
(PID.TID 0000.0001) %MON extforcing_empmr_del2        =   0.0000000000000E+00
(PID.TID 0000.0001) %MON advcfl_uvel_max              =   7.6493052017666E-04
(PID.TID 0000.0001) %MON advcfl_vvel_max              =   7.4920455365905E-04
(PID.TID 0000.0001) %MON advcfl_wvel_max              =   1.3480205748674E-03
(PID.TID 0000.0001) %MON advcfl_W_hf_max              =   0.0000000000000E+00
(PID.TID 0000.0001) %MON pe_b_mean                    =   4.3973866633864E-04
(PID.TID 0000.0001) %MON ke_max                       =   3.5832298096741E-02
(PID.TID 0000.0001) %MON ke_mean                      =   7.3315639726888E-04
(PID.TID 0000.0001) %MON ke_vol                       =   6.2001702110790E+17
(PID.TID 0000.0001) %MON vort_r_min                   =  -1.2415768151268E-07
(PID.TID 0000.0001) %MON vort_r_max                   =   1.2415768151267E-07
(PID.TID 0000.0001) %MON vort_a_mean                  =   3.9015054327625E-22
(PID.TID 0000.0001) %MON vort_a_sd                    =   8.8130413357260E-05
(PID.TID 0000.0001) %MON vort_p_mean                  =   3.9556022698554E-22
(PID.TID 0000.0001) %MON vort_p_sd                    =   8.9589103147808E-05
(PID.TID 0000.0001) %MON surfExpan_theta_mean         =   1.2685099062646E-21
(PID.TID 0000.0001) %MON surfExpan_salt_mean          =   0.0000000000000E+00
(PID.TID 0000.0001) // =======================================================
(PID.TID 0000.0001) // End MONITOR dynamic field statistics
(PID.TID 0000.0001) // =======================================================
 cg2d: Sum(rhs),rhsMax =  -6.66687903709314E+01  1.36932572912949E+03
(PID.TID 0000.0001)                    cg2d_init_res =    1.17766735777972E+00
(PID.TID 0000.0001)                       cg2d_iters =     6
(PID.TID 0000.0001)                         cg2d_res =    2.94357259017966E-15
(PID.TID 0000.0001) // =======================================================
(PID.TID 0000.0001) // Begin MONITOR dynamic field statistics
(PID.TID 0000.0001) // =======================================================
(PID.TID 0000.0001) %MON time_tsnumber                =                    12
(PID.TID 0000.0001) %MON time_secondsf                =   1.0800000000000E+04
(PID.TID 0000.0001) %MON dynstat_eta_max              =   2.5310153714265E+00
(PID.TID 0000.0001) %MON dynstat_eta_min              =  -3.5655623414723E+00
(PID.TID 0000.0001) %MON dynstat_eta_mean             =   5.6129684401127E-02
(PID.TID 0000.0001) %MON dynstat_eta_sd               =   3.5848546286482E-01
(PID.TID 0000.0001) %MON dynstat_eta_del2             =   6.2168625865134E-03
(PID.TID 0000.0001) %MON dynstat_uvel_max             =   2.6128073070958E-01
(PID.TID 0000.0001) %MON dynstat_uvel_min             =  -2.4403967756933E-01
(PID.TID 0000.0001) %MON dynstat_uvel_mean            =   7.2391219903842E-04
(PID.TID 0000.0001) %MON dynstat_uvel_sd              =   2.6751833066196E-02
(PID.TID 0000.0001) %MON dynstat_uvel_del2            =   2.9657045829896E-04
(PID.TID 0000.0001) %MON dynstat_vvel_max             =   2.5384329658572E-01
(PID.TID 0000.0001) %MON dynstat_vvel_min             =  -2.5384329658571E-01
(PID.TID 0000.0001) %MON dynstat_vvel_mean            =  -1.3191130456795E-12
(PID.TID 0000.0001) %MON dynstat_vvel_sd              =   2.6260064132871E-02
(PID.TID 0000.0001) %MON dynstat_vvel_del2            =   2.8496156694851E-04
(PID.TID 0000.0001) %MON dynstat_wvel_max             =   3.3027165465875E-04
(PID.TID 0000.0001) %MON dynstat_wvel_min             =  -6.8111568130577E-04
(PID.TID 0000.0001) %MON dynstat_wvel_mean            =  -1.0886136347045E-24
(PID.TID 0000.0001) %MON dynstat_wvel_sd              =   7.0996394925861E-05
(PID.TID 0000.0001) %MON dynstat_wvel_del2            =   1.5202492629523E-06
(PID.TID 0000.0001) %MON dynstat_theta_max            =   1.5000000000000E+01
(PID.TID 0000.0001) %MON dynstat_theta_min            =   1.5000000000000E+01
(PID.TID 0000.0001) %MON dynstat_theta_mean           =   1.5000000000000E+01
(PID.TID 0000.0001) %MON dynstat_theta_sd             =   1.7763568394003E-15
(PID.TID 0000.0001) %MON dynstat_theta_del2           =   0.0000000000000E+00
(PID.TID 0000.0001) %MON dynstat_salt_max             =   0.0000000000000E+00
(PID.TID 0000.0001) %MON dynstat_salt_min             =   0.0000000000000E+00
(PID.TID 0000.0001) %MON dynstat_salt_mean            =   0.0000000000000E+00
(PID.TID 0000.0001) %MON dynstat_salt_sd              =   0.0000000000000E+00
(PID.TID 0000.0001) %MON dynstat_salt_del2            =   0.0000000000000E+00
(PID.TID 0000.0001) %MON extforcing_qnet_max          =   0.0000000000000E+00
(PID.TID 0000.0001) %MON extforcing_qnet_min          =   0.0000000000000E+00
(PID.TID 0000.0001) %MON extforcing_qnet_mean         =   0.0000000000000E+00
(PID.TID 0000.0001) %MON extforcing_qnet_sd           =   0.0000000000000E+00
(PID.TID 0000.0001) %MON extforcing_qnet_del2         =   0.0000000000000E+00
(PID.TID 0000.0001) %MON extforcing_qsw_max           =   0.0000000000000E+00
(PID.TID 0000.0001) %MON extforcing_qsw_min           =   0.0000000000000E+00
(PID.TID 0000.0001) %MON extforcing_qsw_mean          =   0.0000000000000E+00
(PID.TID 0000.0001) %MON extforcing_qsw_sd            =   0.0000000000000E+00
(PID.TID 0000.0001) %MON extforcing_qsw_del2          =   0.0000000000000E+00
(PID.TID 0000.0001) %MON extforcing_empmr_max         =   0.0000000000000E+00
(PID.TID 0000.0001) %MON extforcing_empmr_min         =   0.0000000000000E+00
(PID.TID 0000.0001) %MON extforcing_empmr_mean        =   0.0000000000000E+00
(PID.TID 0000.0001) %MON extforcing_empmr_sd          =   0.0000000000000E+00
(PID.TID 0000.0001) %MON extforcing_empmr_del2        =   0.0000000000000E+00
(PID.TID 0000.0001) %MON advcfl_uvel_max              =   7.3358520379502E-04
(PID.TID 0000.0001) %MON advcfl_vvel_max              =   7.1270348162344E-04
(PID.TID 0000.0001) %MON advcfl_wvel_max              =   8.9751700318476E-04
(PID.TID 0000.0001) %MON advcfl_W_hf_max              =   0.0000000000000E+00
(PID.TID 0000.0001) %MON pe_b_mean                    =   4.7317488998313E-04
(PID.TID 0000.0001) %MON ke_max                       =   3.3071792557842E-02
(PID.TID 0000.0001) %MON ke_mean                      =   6.9974158843781E-04
(PID.TID 0000.0001) %MON ke_vol                       =   6.2001702110790E+17
(PID.TID 0000.0001) %MON vort_r_min                   =  -1.3335574428455E-07
(PID.TID 0000.0001) %MON vort_r_max                   =   1.3335574428454E-07
(PID.TID 0000.0001) %MON vort_a_mean                  =  -1.9507527163812E-21
(PID.TID 0000.0001) %MON vort_a_sd                    =   8.8130441699089E-05
(PID.TID 0000.0001) %MON vort_p_mean                  =  -1.9778011349277E-21
(PID.TID 0000.0001) %MON vort_p_sd                    =   8.9589131414745E-05
(PID.TID 0000.0001) %MON surfExpan_theta_mean         =  -1.1525093257212E-20
(PID.TID 0000.0001) %MON surfExpan_salt_mean          =   0.0000000000000E+00
(PID.TID 0000.0001) // =======================================================
(PID.TID 0000.0001) // End MONITOR dynamic field statistics
(PID.TID 0000.0001) // =======================================================
 cg2d: Sum(rhs),rhsMax =  -5.93278195541037E+01  1.53876024217617E+03
(PID.TID 0000.0001)                    cg2d_init_res =    9.96557702512776E-01
(PID.TID 0000.0001)                       cg2d_iters =     6
(PID.TID 0000.0001)                         cg2d_res =    3.12051946538411E-15
(PID.TID 0000.0001) // =======================================================
(PID.TID 0000.0001) // Begin MONITOR dynamic field statistics
(PID.TID 0000.0001) // =======================================================
(PID.TID 0000.0001) %MON time_tsnumber                =                    13
(PID.TID 0000.0001) %MON time_secondsf                =   1.1700000000000E+04
(PID.TID 0000.0001) %MON dynstat_eta_max              =   2.4810748692742E+00
(PID.TID 0000.0001) %MON dynstat_eta_min              =  -4.0157723006353E+00
(PID.TID 0000.0001) %MON dynstat_eta_mean             =   5.6129684401127E-02
(PID.TID 0000.0001) %MON dynstat_eta_sd               =   3.6947141183091E-01
(PID.TID 0000.0001) %MON dynstat_eta_del2             =   6.2545648754789E-03
(PID.TID 0000.0001) %MON dynstat_uvel_max             =   2.4624501793133E-01
(PID.TID 0000.0001) %MON dynstat_uvel_min             =  -2.2562588838430E-01
(PID.TID 0000.0001) %MON dynstat_uvel_mean            =   8.4707081285040E-04
(PID.TID 0000.0001) %MON dynstat_uvel_sd              =   2.6283041210685E-02
(PID.TID 0000.0001) %MON dynstat_uvel_del2            =   3.1990239895041E-04
(PID.TID 0000.0001) %MON dynstat_vvel_max             =   2.3576631516004E-01
(PID.TID 0000.0001) %MON dynstat_vvel_min             =  -2.3576631516003E-01
(PID.TID 0000.0001) %MON dynstat_vvel_mean            =  -4.9482511601836E-12
(PID.TID 0000.0001) %MON dynstat_vvel_sd              =   2.5622186192941E-02
(PID.TID 0000.0001) %MON dynstat_vvel_del2            =   3.0464147476913E-04
(PID.TID 0000.0001) %MON dynstat_wvel_max             =   3.3133792832590E-04
(PID.TID 0000.0001) %MON dynstat_wvel_min             =  -5.9168977385372E-04
(PID.TID 0000.0001) %MON dynstat_wvel_mean            =  -6.8776479968588E-22
(PID.TID 0000.0001) %MON dynstat_wvel_sd              =   6.8775397566232E-05
(PID.TID 0000.0001) %MON dynstat_wvel_del2            =   1.7304949201017E-06
(PID.TID 0000.0001) %MON dynstat_theta_max            =   1.5000000000000E+01
(PID.TID 0000.0001) %MON dynstat_theta_min            =   1.5000000000000E+01
(PID.TID 0000.0001) %MON dynstat_theta_mean           =   1.5000000000000E+01
(PID.TID 0000.0001) %MON dynstat_theta_sd             =   1.7763568394003E-15
(PID.TID 0000.0001) %MON dynstat_theta_del2           =   0.0000000000000E+00
(PID.TID 0000.0001) %MON dynstat_salt_max             =   0.0000000000000E+00
(PID.TID 0000.0001) %MON dynstat_salt_min             =   0.0000000000000E+00
(PID.TID 0000.0001) %MON dynstat_salt_mean            =   0.0000000000000E+00
(PID.TID 0000.0001) %MON dynstat_salt_sd              =   0.0000000000000E+00
(PID.TID 0000.0001) %MON dynstat_salt_del2            =   0.0000000000000E+00
(PID.TID 0000.0001) %MON extforcing_qnet_max          =   0.0000000000000E+00
(PID.TID 0000.0001) %MON extforcing_qnet_min          =   0.0000000000000E+00
(PID.TID 0000.0001) %MON extforcing_qnet_mean         =   0.0000000000000E+00
(PID.TID 0000.0001) %MON extforcing_qnet_sd           =   0.0000000000000E+00
(PID.TID 0000.0001) %MON extforcing_qnet_del2         =   0.0000000000000E+00
(PID.TID 0000.0001) %MON extforcing_qsw_max           =   0.0000000000000E+00
(PID.TID 0000.0001) %MON extforcing_qsw_min           =   0.0000000000000E+00
(PID.TID 0000.0001) %MON extforcing_qsw_mean          =   0.0000000000000E+00
(PID.TID 0000.0001) %MON extforcing_qsw_sd            =   0.0000000000000E+00
(PID.TID 0000.0001) %MON extforcing_qsw_del2          =   0.0000000000000E+00
(PID.TID 0000.0001) %MON extforcing_empmr_max         =   0.0000000000000E+00
(PID.TID 0000.0001) %MON extforcing_empmr_min         =   0.0000000000000E+00
(PID.TID 0000.0001) %MON extforcing_empmr_mean        =   0.0000000000000E+00
(PID.TID 0000.0001) %MON extforcing_empmr_sd          =   0.0000000000000E+00
(PID.TID 0000.0001) %MON extforcing_empmr_del2        =   0.0000000000000E+00
(PID.TID 0000.0001) %MON advcfl_uvel_max              =   6.9498534586328E-04
(PID.TID 0000.0001) %MON advcfl_vvel_max              =   6.6297714576872E-04
(PID.TID 0000.0001) %MON advcfl_wvel_max              =   7.7967905778675E-04
(PID.TID 0000.0001) %MON advcfl_W_hf_max              =   0.0000000000000E+00
(PID.TID 0000.0001) %MON pe_b_mean                    =   5.0191598134491E-04
(PID.TID 0000.0001) %MON ke_max                       =   3.0473997000615E-02
(PID.TID 0000.0001) %MON ke_mean                      =   6.7100980837253E-04
(PID.TID 0000.0001) %MON ke_vol                       =   6.2001702110790E+17
(PID.TID 0000.0001) %MON vort_r_min                   =  -1.4042459969684E-07
(PID.TID 0000.0001) %MON vort_r_max                   =   1.4042459969683E-07
(PID.TID 0000.0001) %MON vort_a_mean                  =  -3.5113548894862E-21
(PID.TID 0000.0001) %MON vort_a_sd                    =   8.8130472176461E-05
(PID.TID 0000.0001) %MON vort_p_mean                  =  -3.5600420428699E-21
(PID.TID 0000.0001) %MON vort_p_sd                    =   8.9589161811559E-05
(PID.TID 0000.0001) %MON surfExpan_theta_mean         =   1.4651804881476E-20
(PID.TID 0000.0001) %MON surfExpan_salt_mean          =   0.0000000000000E+00
(PID.TID 0000.0001) // =======================================================
(PID.TID 0000.0001) // End MONITOR dynamic field statistics
(PID.TID 0000.0001) // =======================================================
 cg2d: Sum(rhs),rhsMax =  -5.75935452255243E+01  1.58509585800595E+03
(PID.TID 0000.0001)                    cg2d_init_res =    9.51459116591471E-01
(PID.TID 0000.0001)                       cg2d_iters =     6
(PID.TID 0000.0001)                         cg2d_res =    3.54833345638221E-15
(PID.TID 0000.0001) // =======================================================
(PID.TID 0000.0001) // Begin MONITOR dynamic field statistics
(PID.TID 0000.0001) // =======================================================
(PID.TID 0000.0001) %MON time_tsnumber                =                    14
(PID.TID 0000.0001) %MON time_secondsf                =   1.2600000000000E+04
(PID.TID 0000.0001) %MON dynstat_eta_max              =   2.4181307392308E+00
(PID.TID 0000.0001) %MON dynstat_eta_min              =  -4.1455571043142E+00
(PID.TID 0000.0001) %MON dynstat_eta_mean             =   5.6129684401127E-02
(PID.TID 0000.0001) %MON dynstat_eta_sd               =   3.7710468004423E-01
(PID.TID 0000.0001) %MON dynstat_eta_del2             =   6.3082359298705E-03
(PID.TID 0000.0001) %MON dynstat_uvel_max             =   2.4099268817120E-01
(PID.TID 0000.0001) %MON dynstat_uvel_min             =  -2.1621370748470E-01
(PID.TID 0000.0001) %MON dynstat_uvel_mean            =   9.7908617267046E-04
(PID.TID 0000.0001) %MON dynstat_uvel_sd              =   2.5971862172428E-02
(PID.TID 0000.0001) %MON dynstat_uvel_del2            =   3.4991875415217E-04
(PID.TID 0000.0001) %MON dynstat_vvel_max             =   2.2736760484024E-01
(PID.TID 0000.0001) %MON dynstat_vvel_min             =  -2.2736760484024E-01
(PID.TID 0000.0001) %MON dynstat_vvel_mean            =  -1.7213258392552E-11
(PID.TID 0000.0001) %MON dynstat_vvel_sd              =   2.5126004814330E-02
(PID.TID 0000.0001) %MON dynstat_vvel_del2            =   3.3602877527034E-04
(PID.TID 0000.0001) %MON dynstat_wvel_max             =   3.1716211012475E-04
(PID.TID 0000.0001) %MON dynstat_wvel_min             =  -5.9952120208195E-04
(PID.TID 0000.0001) %MON dynstat_wvel_mean            =  -5.4043717472451E-22
(PID.TID 0000.0001) %MON dynstat_wvel_sd              =   6.8776442290583E-05
(PID.TID 0000.0001) %MON dynstat_wvel_del2            =   1.9317214344144E-06
(PID.TID 0000.0001) %MON dynstat_theta_max            =   1.5000000000000E+01
(PID.TID 0000.0001) %MON dynstat_theta_min            =   1.5000000000000E+01
(PID.TID 0000.0001) %MON dynstat_theta_mean           =   1.5000000000000E+01
(PID.TID 0000.0001) %MON dynstat_theta_sd             =   1.7763568394003E-15
(PID.TID 0000.0001) %MON dynstat_theta_del2           =   0.0000000000000E+00
(PID.TID 0000.0001) %MON dynstat_salt_max             =   0.0000000000000E+00
(PID.TID 0000.0001) %MON dynstat_salt_min             =   0.0000000000000E+00
(PID.TID 0000.0001) %MON dynstat_salt_mean            =   0.0000000000000E+00
(PID.TID 0000.0001) %MON dynstat_salt_sd              =   0.0000000000000E+00
(PID.TID 0000.0001) %MON dynstat_salt_del2            =   0.0000000000000E+00
(PID.TID 0000.0001) %MON extforcing_qnet_max          =   0.0000000000000E+00
(PID.TID 0000.0001) %MON extforcing_qnet_min          =   0.0000000000000E+00
(PID.TID 0000.0001) %MON extforcing_qnet_mean         =   0.0000000000000E+00
(PID.TID 0000.0001) %MON extforcing_qnet_sd           =   0.0000000000000E+00
(PID.TID 0000.0001) %MON extforcing_qnet_del2         =   0.0000000000000E+00
(PID.TID 0000.0001) %MON extforcing_qsw_max           =   0.0000000000000E+00
(PID.TID 0000.0001) %MON extforcing_qsw_min           =   0.0000000000000E+00
(PID.TID 0000.0001) %MON extforcing_qsw_mean          =   0.0000000000000E+00
(PID.TID 0000.0001) %MON extforcing_qsw_sd            =   0.0000000000000E+00
(PID.TID 0000.0001) %MON extforcing_qsw_del2          =   0.0000000000000E+00
(PID.TID 0000.0001) %MON extforcing_empmr_max         =   0.0000000000000E+00
(PID.TID 0000.0001) %MON extforcing_empmr_min         =   0.0000000000000E+00
(PID.TID 0000.0001) %MON extforcing_empmr_mean        =   0.0000000000000E+00
(PID.TID 0000.0001) %MON extforcing_empmr_sd          =   0.0000000000000E+00
(PID.TID 0000.0001) %MON extforcing_empmr_del2        =   0.0000000000000E+00
(PID.TID 0000.0001) %MON advcfl_uvel_max              =   6.8016152426640E-04
(PID.TID 0000.0001) %MON advcfl_vvel_max              =   6.4279801731115E-04
(PID.TID 0000.0001) %MON advcfl_wvel_max              =   7.8999865574489E-04
(PID.TID 0000.0001) %MON advcfl_W_hf_max              =   0.0000000000000E+00
(PID.TID 0000.0001) %MON pe_b_mean                    =   5.2239667336736E-04
(PID.TID 0000.0001) %MON ke_max                       =   2.8541337487565E-02
(PID.TID 0000.0001) %MON ke_mean                      =   6.5052368689113E-04
(PID.TID 0000.0001) %MON ke_vol                       =   6.2001702110790E+17
(PID.TID 0000.0001) %MON vort_r_min                   =  -1.4542427417218E-07
(PID.TID 0000.0001) %MON vort_r_max                   =   1.4542427417216E-07
(PID.TID 0000.0001) %MON vort_a_mean                  =  -7.8030108655250E-22
(PID.TID 0000.0001) %MON vort_a_sd                    =   8.8130504705378E-05
(PID.TID 0000.0001) %MON vort_p_mean                  =  -7.9112045397109E-22
(PID.TID 0000.0001) %MON vort_p_sd                    =   8.9589194254430E-05
(PID.TID 0000.0001) %MON surfExpan_theta_mean         =  -1.1605831322453E-20
(PID.TID 0000.0001) %MON surfExpan_salt_mean          =   0.0000000000000E+00
(PID.TID 0000.0001) // =======================================================
(PID.TID 0000.0001) // End MONITOR dynamic field statistics
(PID.TID 0000.0001) // =======================================================
 cg2d: Sum(rhs),rhsMax =  -6.01480284073593E+01  1.51777693138296E+03
(PID.TID 0000.0001)                    cg2d_init_res =    1.00501254634962E+00
(PID.TID 0000.0001)                       cg2d_iters =     6
(PID.TID 0000.0001)                         cg2d_res =    4.54734267731399E-15
(PID.TID 0000.0001) // =======================================================
(PID.TID 0000.0001) // Begin MONITOR dynamic field statistics
(PID.TID 0000.0001) // =======================================================
(PID.TID 0000.0001) %MON time_tsnumber                =                    15
(PID.TID 0000.0001) %MON time_secondsf                =   1.3500000000000E+04
(PID.TID 0000.0001) %MON dynstat_eta_max              =   2.3842769905976E+00
(PID.TID 0000.0001) %MON dynstat_eta_min              =  -3.9799075217721E+00
(PID.TID 0000.0001) %MON dynstat_eta_mean             =   5.6129684401127E-02
(PID.TID 0000.0001) %MON dynstat_eta_sd               =   3.8156834045447E-01
(PID.TID 0000.0001) %MON dynstat_eta_del2             =   6.5436378934744E-03
(PID.TID 0000.0001) %MON dynstat_uvel_max             =   2.3022190306115E-01
(PID.TID 0000.0001) %MON dynstat_uvel_min             =  -2.0286638618975E-01
(PID.TID 0000.0001) %MON dynstat_uvel_mean            =   1.1197043098588E-03
(PID.TID 0000.0001) %MON dynstat_uvel_sd              =   2.5824420959713E-02
(PID.TID 0000.0001) %MON dynstat_uvel_del2            =   3.7719641158932E-04
(PID.TID 0000.0001) %MON dynstat_vvel_max             =   2.1853341297866E-01
(PID.TID 0000.0001) %MON dynstat_vvel_min             =  -2.1853341297866E-01
(PID.TID 0000.0001) %MON dynstat_vvel_mean            =  -5.5879941783251E-11
(PID.TID 0000.0001) %MON dynstat_vvel_sd              =   2.4781396951146E-02
(PID.TID 0000.0001) %MON dynstat_vvel_del2            =   3.6188096444416E-04
(PID.TID 0000.0001) %MON dynstat_wvel_max             =   3.3716996365660E-04
(PID.TID 0000.0001) %MON dynstat_wvel_min             =  -5.6749026686273E-04
(PID.TID 0000.0001) %MON dynstat_wvel_mean            =   1.6484055604815E-22
(PID.TID 0000.0001) %MON dynstat_wvel_sd              =   7.0169401328773E-05
(PID.TID 0000.0001) %MON dynstat_wvel_del2            =   2.0926342375937E-06
(PID.TID 0000.0001) %MON dynstat_theta_max            =   1.5000000000000E+01
(PID.TID 0000.0001) %MON dynstat_theta_min            =   1.5000000000000E+01
(PID.TID 0000.0001) %MON dynstat_theta_mean           =   1.5000000000000E+01
(PID.TID 0000.0001) %MON dynstat_theta_sd             =   1.7763568394003E-15
(PID.TID 0000.0001) %MON dynstat_theta_del2           =   0.0000000000000E+00
(PID.TID 0000.0001) %MON dynstat_salt_max             =   0.0000000000000E+00
(PID.TID 0000.0001) %MON dynstat_salt_min             =   0.0000000000000E+00
(PID.TID 0000.0001) %MON dynstat_salt_mean            =   0.0000000000000E+00
(PID.TID 0000.0001) %MON dynstat_salt_sd              =   0.0000000000000E+00
(PID.TID 0000.0001) %MON dynstat_salt_del2            =   0.0000000000000E+00
(PID.TID 0000.0001) %MON extforcing_qnet_max          =   0.0000000000000E+00
(PID.TID 0000.0001) %MON extforcing_qnet_min          =   0.0000000000000E+00
(PID.TID 0000.0001) %MON extforcing_qnet_mean         =   0.0000000000000E+00
(PID.TID 0000.0001) %MON extforcing_qnet_sd           =   0.0000000000000E+00
(PID.TID 0000.0001) %MON extforcing_qnet_del2         =   0.0000000000000E+00
(PID.TID 0000.0001) %MON extforcing_qsw_max           =   0.0000000000000E+00
(PID.TID 0000.0001) %MON extforcing_qsw_min           =   0.0000000000000E+00
(PID.TID 0000.0001) %MON extforcing_qsw_mean          =   0.0000000000000E+00
(PID.TID 0000.0001) %MON extforcing_qsw_sd            =   0.0000000000000E+00
(PID.TID 0000.0001) %MON extforcing_qsw_del2          =   0.0000000000000E+00
(PID.TID 0000.0001) %MON extforcing_empmr_max         =   0.0000000000000E+00
(PID.TID 0000.0001) %MON extforcing_empmr_min         =   0.0000000000000E+00
(PID.TID 0000.0001) %MON extforcing_empmr_mean        =   0.0000000000000E+00
(PID.TID 0000.0001) %MON extforcing_empmr_sd          =   0.0000000000000E+00
(PID.TID 0000.0001) %MON extforcing_empmr_del2        =   0.0000000000000E+00
(PID.TID 0000.0001) %MON advcfl_uvel_max              =   6.4976278614040E-04
(PID.TID 0000.0001) %MON advcfl_vvel_max              =   6.1782259912369E-04
(PID.TID 0000.0001) %MON advcfl_wvel_max              =   7.4779098122468E-04
(PID.TID 0000.0001) %MON advcfl_W_hf_max              =   0.0000000000000E+00
(PID.TID 0000.0001) %MON pe_b_mean                    =   5.3456710029069E-04
(PID.TID 0000.0001) %MON ke_max                       =   2.6514382560934E-02
(PID.TID 0000.0001) %MON ke_mean                      =   6.3833095237886E-04
(PID.TID 0000.0001) %MON ke_vol                       =   6.2001702110790E+17
(PID.TID 0000.0001) %MON vort_r_min                   =  -1.4849181540658E-07
(PID.TID 0000.0001) %MON vort_r_max                   =   1.4849181540657E-07
(PID.TID 0000.0001) %MON vort_a_mean                  =   3.5113548894862E-21
(PID.TID 0000.0001) %MON vort_a_sd                    =   8.8130539192705E-05
(PID.TID 0000.0001) %MON vort_p_mean                  =   3.5600420428699E-21
(PID.TID 0000.0001) %MON vort_p_sd                    =   8.9589228650344E-05
(PID.TID 0000.0001) %MON surfExpan_theta_mean         =   1.1799904440107E-20
(PID.TID 0000.0001) %MON surfExpan_salt_mean          =   0.0000000000000E+00
(PID.TID 0000.0001) // =======================================================
(PID.TID 0000.0001) // End MONITOR dynamic field statistics
(PID.TID 0000.0001) // =======================================================
 cg2d: Sum(rhs),rhsMax =  -6.72670228575319E+01  1.35714776879909E+03
(PID.TID 0000.0001)                    cg2d_init_res =    1.15068051799130E+00
(PID.TID 0000.0001)                       cg2d_iters =     6
(PID.TID 0000.0001)                         cg2d_res =    6.40260407460011E-15
(PID.TID 0000.0001) // =======================================================
(PID.TID 0000.0001) // Begin MONITOR dynamic field statistics
(PID.TID 0000.0001) // =======================================================
(PID.TID 0000.0001) %MON time_tsnumber                =                    16
(PID.TID 0000.0001) %MON time_secondsf                =   1.4400000000000E+04
(PID.TID 0000.0001) %MON dynstat_eta_max              =   2.3379345622495E+00
(PID.TID 0000.0001) %MON dynstat_eta_min              =  -3.5717425960527E+00
(PID.TID 0000.0001) %MON dynstat_eta_mean             =   5.6129684401127E-02
(PID.TID 0000.0001) %MON dynstat_eta_sd               =   3.8376320691269E-01
(PID.TID 0000.0001) %MON dynstat_eta_del2             =   6.8375738666784E-03
(PID.TID 0000.0001) %MON dynstat_uvel_max             =   2.2700887612993E-01
(PID.TID 0000.0001) %MON dynstat_uvel_min             =  -1.9858852407998E-01
(PID.TID 0000.0001) %MON dynstat_uvel_mean            =   1.2686372071508E-03
(PID.TID 0000.0001) %MON dynstat_uvel_sd              =   2.5800918915705E-02
(PID.TID 0000.0001) %MON dynstat_uvel_del2            =   3.9329699599146E-04
(PID.TID 0000.0001) %MON dynstat_vvel_max             =   2.0758825344383E-01
(PID.TID 0000.0001) %MON dynstat_vvel_min             =  -2.0758825344382E-01
(PID.TID 0000.0001) %MON dynstat_vvel_mean            =  -1.7021237040086E-10
(PID.TID 0000.0001) %MON dynstat_vvel_sd              =   2.4550313396296E-02
(PID.TID 0000.0001) %MON dynstat_vvel_del2            =   3.7447320321513E-04
(PID.TID 0000.0001) %MON dynstat_wvel_max             =   5.6986320460880E-04
(PID.TID 0000.0001) %MON dynstat_wvel_min             =  -5.1563965964173E-04
(PID.TID 0000.0001) %MON dynstat_wvel_mean            =  -2.9180802290147E-22
(PID.TID 0000.0001) %MON dynstat_wvel_sd              =   7.1883526032742E-05
(PID.TID 0000.0001) %MON dynstat_wvel_del2            =   2.1175497719204E-06
(PID.TID 0000.0001) %MON dynstat_theta_max            =   1.5000000000000E+01
(PID.TID 0000.0001) %MON dynstat_theta_min            =   1.5000000000000E+01
(PID.TID 0000.0001) %MON dynstat_theta_mean           =   1.5000000000000E+01
(PID.TID 0000.0001) %MON dynstat_theta_sd             =   1.7763568394003E-15
(PID.TID 0000.0001) %MON dynstat_theta_del2           =   0.0000000000000E+00
(PID.TID 0000.0001) %MON dynstat_salt_max             =   0.0000000000000E+00
(PID.TID 0000.0001) %MON dynstat_salt_min             =   0.0000000000000E+00
(PID.TID 0000.0001) %MON dynstat_salt_mean            =   0.0000000000000E+00
(PID.TID 0000.0001) %MON dynstat_salt_sd              =   0.0000000000000E+00
(PID.TID 0000.0001) %MON dynstat_salt_del2            =   0.0000000000000E+00
(PID.TID 0000.0001) %MON extforcing_qnet_max          =   0.0000000000000E+00
(PID.TID 0000.0001) %MON extforcing_qnet_min          =   0.0000000000000E+00
(PID.TID 0000.0001) %MON extforcing_qnet_mean         =   0.0000000000000E+00
(PID.TID 0000.0001) %MON extforcing_qnet_sd           =   0.0000000000000E+00
(PID.TID 0000.0001) %MON extforcing_qnet_del2         =   0.0000000000000E+00
(PID.TID 0000.0001) %MON extforcing_qsw_max           =   0.0000000000000E+00
(PID.TID 0000.0001) %MON extforcing_qsw_min           =   0.0000000000000E+00
(PID.TID 0000.0001) %MON extforcing_qsw_mean          =   0.0000000000000E+00
(PID.TID 0000.0001) %MON extforcing_qsw_sd            =   0.0000000000000E+00
(PID.TID 0000.0001) %MON extforcing_qsw_del2          =   0.0000000000000E+00
(PID.TID 0000.0001) %MON extforcing_empmr_max         =   0.0000000000000E+00
(PID.TID 0000.0001) %MON extforcing_empmr_min         =   0.0000000000000E+00
(PID.TID 0000.0001) %MON extforcing_empmr_mean        =   0.0000000000000E+00
(PID.TID 0000.0001) %MON extforcing_empmr_sd          =   0.0000000000000E+00
(PID.TID 0000.0001) %MON extforcing_empmr_del2        =   0.0000000000000E+00
(PID.TID 0000.0001) %MON advcfl_uvel_max              =   6.4456117748991E-04
(PID.TID 0000.0001) %MON advcfl_vvel_max              =   5.9046017554284E-04
(PID.TID 0000.0001) %MON advcfl_wvel_max              =   7.5091783916240E-04
(PID.TID 0000.0001) %MON advcfl_W_hf_max              =   0.0000000000000E+00
(PID.TID 0000.0001) %MON pe_b_mean                    =   5.4060405257794E-04
(PID.TID 0000.0001) %MON ke_max                       =   2.5436210452931E-02
(PID.TID 0000.0001) %MON ke_mean                      =   6.3225320680716E-04
(PID.TID 0000.0001) %MON ke_vol                       =   6.2001702110790E+17
(PID.TID 0000.0001) %MON vort_r_min                   =  -1.4979622572852E-07
(PID.TID 0000.0001) %MON vort_r_max                   =   1.4979622572850E-07
(PID.TID 0000.0001) %MON vort_a_mean                  =   3.9015054327625E-22
(PID.TID 0000.0001) %MON vort_a_sd                    =   8.8130575535654E-05
(PID.TID 0000.0001) %MON vort_p_mean                  =   3.9556022698554E-22
(PID.TID 0000.0001) %MON vort_p_sd                    =   8.9589264896469E-05
(PID.TID 0000.0001) %MON surfExpan_theta_mean         =   2.5436690313787E-20
(PID.TID 0000.0001) %MON surfExpan_salt_mean          =   0.0000000000000E+00
(PID.TID 0000.0001) // =======================================================
(PID.TID 0000.0001) // End MONITOR dynamic field statistics
(PID.TID 0000.0001) // =======================================================
 cg2d: Sum(rhs),rhsMax =  -8.06051886212836E+01  1.13257336836938E+03
(PID.TID 0000.0001)                    cg2d_init_res =    1.40756876293621E+00
(PID.TID 0000.0001)                       cg2d_iters =     6
(PID.TID 0000.0001)                         cg2d_res =    9.10457880690508E-15
(PID.TID 0000.0001) // =======================================================
(PID.TID 0000.0001) // Begin MONITOR dynamic field statistics
(PID.TID 0000.0001) // =======================================================
(PID.TID 0000.0001) %MON time_tsnumber                =                    17
(PID.TID 0000.0001) %MON time_secondsf                =   1.5300000000000E+04
(PID.TID 0000.0001) %MON dynstat_eta_max              =   2.3085930485232E+00
(PID.TID 0000.0001) %MON dynstat_eta_min              =  -2.9968560053841E+00
(PID.TID 0000.0001) %MON dynstat_eta_mean             =   5.6129684401127E-02
(PID.TID 0000.0001) %MON dynstat_eta_sd               =   3.8474601925070E-01
(PID.TID 0000.0001) %MON dynstat_eta_del2             =   6.8608171121797E-03
(PID.TID 0000.0001) %MON dynstat_uvel_max             =   2.2189185644146E-01
(PID.TID 0000.0001) %MON dynstat_uvel_min             =  -1.8836345549263E-01
(PID.TID 0000.0001) %MON dynstat_uvel_mean            =   1.4255597359246E-03
(PID.TID 0000.0001) %MON dynstat_uvel_sd              =   2.5846950005086E-02
(PID.TID 0000.0001) %MON dynstat_uvel_del2            =   4.1436164124093E-04
(PID.TID 0000.0001) %MON dynstat_vvel_max             =   2.0316060736168E-01
(PID.TID 0000.0001) %MON dynstat_vvel_min             =  -2.0316060736167E-01
(PID.TID 0000.0001) %MON dynstat_vvel_mean            =  -4.8878827447332E-10
(PID.TID 0000.0001) %MON dynstat_vvel_sd              =   2.4378134354866E-02
(PID.TID 0000.0001) %MON dynstat_vvel_del2            =   3.9745570061472E-04
(PID.TID 0000.0001) %MON dynstat_wvel_max             =   7.0766255243246E-04
(PID.TID 0000.0001) %MON dynstat_wvel_min             =  -5.1224962532266E-04
(PID.TID 0000.0001) %MON dynstat_wvel_mean            =  -1.5723278891752E-22
(PID.TID 0000.0001) %MON dynstat_wvel_sd              =   7.3105923461040E-05
(PID.TID 0000.0001) %MON dynstat_wvel_del2            =   2.1715049805313E-06
(PID.TID 0000.0001) %MON dynstat_theta_max            =   1.5000000000000E+01
(PID.TID 0000.0001) %MON dynstat_theta_min            =   1.5000000000000E+01
(PID.TID 0000.0001) %MON dynstat_theta_mean           =   1.5000000000000E+01
(PID.TID 0000.0001) %MON dynstat_theta_sd             =   1.7763568394003E-15
(PID.TID 0000.0001) %MON dynstat_theta_del2           =   0.0000000000000E+00
(PID.TID 0000.0001) %MON dynstat_salt_max             =   0.0000000000000E+00
(PID.TID 0000.0001) %MON dynstat_salt_min             =   0.0000000000000E+00
(PID.TID 0000.0001) %MON dynstat_salt_mean            =   0.0000000000000E+00
(PID.TID 0000.0001) %MON dynstat_salt_sd              =   0.0000000000000E+00
(PID.TID 0000.0001) %MON dynstat_salt_del2            =   0.0000000000000E+00
(PID.TID 0000.0001) %MON extforcing_qnet_max          =   0.0000000000000E+00
(PID.TID 0000.0001) %MON extforcing_qnet_min          =   0.0000000000000E+00
(PID.TID 0000.0001) %MON extforcing_qnet_mean         =   0.0000000000000E+00
(PID.TID 0000.0001) %MON extforcing_qnet_sd           =   0.0000000000000E+00
(PID.TID 0000.0001) %MON extforcing_qnet_del2         =   0.0000000000000E+00
(PID.TID 0000.0001) %MON extforcing_qsw_max           =   0.0000000000000E+00
(PID.TID 0000.0001) %MON extforcing_qsw_min           =   0.0000000000000E+00
(PID.TID 0000.0001) %MON extforcing_qsw_mean          =   0.0000000000000E+00
(PID.TID 0000.0001) %MON extforcing_qsw_sd            =   0.0000000000000E+00
(PID.TID 0000.0001) %MON extforcing_qsw_del2          =   0.0000000000000E+00
(PID.TID 0000.0001) %MON extforcing_empmr_max         =   0.0000000000000E+00
(PID.TID 0000.0001) %MON extforcing_empmr_min         =   0.0000000000000E+00
(PID.TID 0000.0001) %MON extforcing_empmr_mean        =   0.0000000000000E+00
(PID.TID 0000.0001) %MON extforcing_empmr_sd          =   0.0000000000000E+00
(PID.TID 0000.0001) %MON extforcing_empmr_del2        =   0.0000000000000E+00
(PID.TID 0000.0001) %MON advcfl_uvel_max              =   6.3003208817911E-04
(PID.TID 0000.0001) %MON advcfl_vvel_max              =   5.7793059131541E-04
(PID.TID 0000.0001) %MON advcfl_wvel_max              =   9.3249823893003E-04
(PID.TID 0000.0001) %MON advcfl_W_hf_max              =   0.0000000000000E+00
(PID.TID 0000.0001) %MON pe_b_mean                    =   5.4331848923607E-04
(PID.TID 0000.0001) %MON ke_max                       =   2.4025611537634E-02
(PID.TID 0000.0001) %MON ke_mean                      =   6.2947838896633E-04
(PID.TID 0000.0001) %MON ke_vol                       =   6.2001702110790E+17
(PID.TID 0000.0001) %MON vort_r_min                   =  -1.4951138285576E-07
(PID.TID 0000.0001) %MON vort_r_max                   =   1.4951138285575E-07
(PID.TID 0000.0001) %MON vort_a_mean                  =   2.3409032596575E-21
(PID.TID 0000.0001) %MON vort_a_sd                    =   8.8130613621270E-05
(PID.TID 0000.0001) %MON vort_p_mean                  =   2.3733613619133E-21
(PID.TID 0000.0001) %MON vort_p_sd                    =   8.9589302879394E-05
(PID.TID 0000.0001) %MON surfExpan_theta_mean         =   1.9073982088138E-20
(PID.TID 0000.0001) %MON surfExpan_salt_mean          =   0.0000000000000E+00
(PID.TID 0000.0001) // =======================================================
(PID.TID 0000.0001) // End MONITOR dynamic field statistics
(PID.TID 0000.0001) // =======================================================
 cg2d: Sum(rhs),rhsMax =  -9.52955784433902E+01  9.57980333149326E+02
(PID.TID 0000.0001)                    cg2d_init_res =    1.68033568138817E+00
(PID.TID 0000.0001)                       cg2d_iters =     6
(PID.TID 0000.0001)                         cg2d_res =    1.26072865533032E-14
(PID.TID 0000.0001) // =======================================================
(PID.TID 0000.0001) // Begin MONITOR dynamic field statistics
(PID.TID 0000.0001) // =======================================================
(PID.TID 0000.0001) %MON time_tsnumber                =                    18
(PID.TID 0000.0001) %MON time_secondsf                =   1.6200000000000E+04
(PID.TID 0000.0001) %MON dynstat_eta_max              =   2.2829464218446E+00
(PID.TID 0000.0001) %MON dynstat_eta_min              =  -2.5450900691589E+00
(PID.TID 0000.0001) %MON dynstat_eta_mean             =   5.6129684401127E-02
(PID.TID 0000.0001) %MON dynstat_eta_sd               =   3.8530277618234E-01
(PID.TID 0000.0001) %MON dynstat_eta_del2             =   6.9822403169726E-03
(PID.TID 0000.0001) %MON dynstat_uvel_max             =   2.1326242926917E-01
(PID.TID 0000.0001) %MON dynstat_uvel_min             =  -1.8239332102806E-01
(PID.TID 0000.0001) %MON dynstat_uvel_mean            =   1.5901062401112E-03
(PID.TID 0000.0001) %MON dynstat_uvel_sd              =   2.5920257861482E-02
(PID.TID 0000.0001) %MON dynstat_uvel_del2            =   4.3341542776596E-04
(PID.TID 0000.0001) %MON dynstat_vvel_max             =   1.9351864802087E-01
(PID.TID 0000.0001) %MON dynstat_vvel_min             =  -1.9351864802087E-01
(PID.TID 0000.0001) %MON dynstat_vvel_mean            =  -1.3287459116639E-09
(PID.TID 0000.0001) %MON dynstat_vvel_sd              =   2.4221735104491E-02
(PID.TID 0000.0001) %MON dynstat_vvel_del2            =   4.1273932624930E-04
(PID.TID 0000.0001) %MON dynstat_wvel_max             =   7.4190277521344E-04
(PID.TID 0000.0001) %MON dynstat_wvel_min             =  -5.1375988771353E-04
(PID.TID 0000.0001) %MON dynstat_wvel_mean            =  -7.4053621183392E-22
(PID.TID 0000.0001) %MON dynstat_wvel_sd              =   7.3523881598891E-05
(PID.TID 0000.0001) %MON dynstat_wvel_del2            =   2.1568425208163E-06
(PID.TID 0000.0001) %MON dynstat_theta_max            =   1.5000000000000E+01
(PID.TID 0000.0001) %MON dynstat_theta_min            =   1.5000000000000E+01
(PID.TID 0000.0001) %MON dynstat_theta_mean           =   1.5000000000000E+01
(PID.TID 0000.0001) %MON dynstat_theta_sd             =   1.7763568394003E-15
(PID.TID 0000.0001) %MON dynstat_theta_del2           =   0.0000000000000E+00
(PID.TID 0000.0001) %MON dynstat_salt_max             =   0.0000000000000E+00
(PID.TID 0000.0001) %MON dynstat_salt_min             =   0.0000000000000E+00
(PID.TID 0000.0001) %MON dynstat_salt_mean            =   0.0000000000000E+00
(PID.TID 0000.0001) %MON dynstat_salt_sd              =   0.0000000000000E+00
(PID.TID 0000.0001) %MON dynstat_salt_del2            =   0.0000000000000E+00
(PID.TID 0000.0001) %MON extforcing_qnet_max          =   0.0000000000000E+00
(PID.TID 0000.0001) %MON extforcing_qnet_min          =   0.0000000000000E+00
(PID.TID 0000.0001) %MON extforcing_qnet_mean         =   0.0000000000000E+00
(PID.TID 0000.0001) %MON extforcing_qnet_sd           =   0.0000000000000E+00
(PID.TID 0000.0001) %MON extforcing_qnet_del2         =   0.0000000000000E+00
(PID.TID 0000.0001) %MON extforcing_qsw_max           =   0.0000000000000E+00
(PID.TID 0000.0001) %MON extforcing_qsw_min           =   0.0000000000000E+00
(PID.TID 0000.0001) %MON extforcing_qsw_mean          =   0.0000000000000E+00
(PID.TID 0000.0001) %MON extforcing_qsw_sd            =   0.0000000000000E+00
(PID.TID 0000.0001) %MON extforcing_qsw_del2          =   0.0000000000000E+00
(PID.TID 0000.0001) %MON extforcing_empmr_max         =   0.0000000000000E+00
(PID.TID 0000.0001) %MON extforcing_empmr_min         =   0.0000000000000E+00
(PID.TID 0000.0001) %MON extforcing_empmr_mean        =   0.0000000000000E+00
(PID.TID 0000.0001) %MON extforcing_empmr_sd          =   0.0000000000000E+00
(PID.TID 0000.0001) %MON extforcing_empmr_del2        =   0.0000000000000E+00
(PID.TID 0000.0001) %MON advcfl_uvel_max              =   6.0666722478081E-04
(PID.TID 0000.0001) %MON advcfl_vvel_max              =   5.5255173233899E-04
(PID.TID 0000.0001) %MON advcfl_wvel_max              =   9.7761712692840E-04
(PID.TID 0000.0001) %MON advcfl_W_hf_max              =   0.0000000000000E+00
(PID.TID 0000.0001) %MON pe_b_mean                    =   5.4485928084543E-04
(PID.TID 0000.0001) %MON ke_max                       =   2.2963552747660E-02
(PID.TID 0000.0001) %MON ke_mean                      =   6.2785697819741E-04
(PID.TID 0000.0001) %MON ke_vol                       =   6.2001702110790E+17
(PID.TID 0000.0001) %MON vort_r_min                   =  -1.4966848956728E-07
(PID.TID 0000.0001) %MON vort_r_max                   =   1.4966848956727E-07
(PID.TID 0000.0001) %MON vort_a_mean                  =   2.3409032596575E-21
(PID.TID 0000.0001) %MON vort_a_sd                    =   8.8130653325873E-05
(PID.TID 0000.0001) %MON vort_p_mean                  =   2.3733613619133E-21
(PID.TID 0000.0001) %MON vort_p_sd                    =   8.9589342474060E-05
(PID.TID 0000.0001) %MON surfExpan_theta_mean         =  -2.2361039929524E-21
(PID.TID 0000.0001) %MON surfExpan_salt_mean          =   0.0000000000000E+00
(PID.TID 0000.0001) // =======================================================
(PID.TID 0000.0001) // End MONITOR dynamic field statistics
(PID.TID 0000.0001) // =======================================================
 cg2d: Sum(rhs),rhsMax =  -9.86848859271801E+01  9.25078740550208E+02
(PID.TID 0000.0001)                    cg2d_init_res =    1.73735781391801E+00
(PID.TID 0000.0001)                       cg2d_iters =     6
(PID.TID 0000.0001)                         cg2d_res =    1.53089593934890E-14
(PID.TID 0000.0001) // =======================================================
(PID.TID 0000.0001) // Begin MONITOR dynamic field statistics
(PID.TID 0000.0001) // =======================================================
(PID.TID 0000.0001) %MON time_tsnumber                =                    19
(PID.TID 0000.0001) %MON time_secondsf                =   1.7100000000000E+04
(PID.TID 0000.0001) %MON dynstat_eta_max              =   2.2423362105882E+00
(PID.TID 0000.0001) %MON dynstat_eta_min              =  -2.4487924943809E+00
(PID.TID 0000.0001) %MON dynstat_eta_mean             =   5.6129684401127E-02
(PID.TID 0000.0001) %MON dynstat_eta_sd               =   3.8576626909394E-01
(PID.TID 0000.0001) %MON dynstat_eta_del2             =   7.4883219117008E-03
(PID.TID 0000.0001) %MON dynstat_uvel_max             =   2.1323999556688E-01
(PID.TID 0000.0001) %MON dynstat_uvel_min             =  -1.7832019553997E-01
(PID.TID 0000.0001) %MON dynstat_uvel_mean            =   1.7618665215171E-03
(PID.TID 0000.0001) %MON dynstat_uvel_sd              =   2.6002416640457E-02
(PID.TID 0000.0001) %MON dynstat_uvel_del2            =   4.4323001490638E-04
(PID.TID 0000.0001) %MON dynstat_vvel_max             =   1.8858744784363E-01
(PID.TID 0000.0001) %MON dynstat_vvel_min             =  -1.8858744784363E-01
(PID.TID 0000.0001) %MON dynstat_vvel_mean            =  -3.4319271926011E-09
(PID.TID 0000.0001) %MON dynstat_vvel_sd              =   2.4062672570797E-02
(PID.TID 0000.0001) %MON dynstat_vvel_del2            =   4.2198416926901E-04
(PID.TID 0000.0001) %MON dynstat_wvel_max             =   6.7939626474694E-04
(PID.TID 0000.0001) %MON dynstat_wvel_min             =  -4.8082302221339E-04
(PID.TID 0000.0001) %MON dynstat_wvel_mean            =   1.2799175274028E-22
(PID.TID 0000.0001) %MON dynstat_wvel_sd              =   7.3312916735239E-05
(PID.TID 0000.0001) %MON dynstat_wvel_del2            =   2.1506808067654E-06
(PID.TID 0000.0001) %MON dynstat_theta_max            =   1.5000000000000E+01
(PID.TID 0000.0001) %MON dynstat_theta_min            =   1.5000000000000E+01
(PID.TID 0000.0001) %MON dynstat_theta_mean           =   1.5000000000000E+01
(PID.TID 0000.0001) %MON dynstat_theta_sd             =   1.7763568394003E-15
(PID.TID 0000.0001) %MON dynstat_theta_del2           =   0.0000000000000E+00
(PID.TID 0000.0001) %MON dynstat_salt_max             =   0.0000000000000E+00
(PID.TID 0000.0001) %MON dynstat_salt_min             =   0.0000000000000E+00
(PID.TID 0000.0001) %MON dynstat_salt_mean            =   0.0000000000000E+00
(PID.TID 0000.0001) %MON dynstat_salt_sd              =   0.0000000000000E+00
(PID.TID 0000.0001) %MON dynstat_salt_del2            =   0.0000000000000E+00
(PID.TID 0000.0001) %MON extforcing_qnet_max          =   0.0000000000000E+00
(PID.TID 0000.0001) %MON extforcing_qnet_min          =   0.0000000000000E+00
(PID.TID 0000.0001) %MON extforcing_qnet_mean         =   0.0000000000000E+00
(PID.TID 0000.0001) %MON extforcing_qnet_sd           =   0.0000000000000E+00
(PID.TID 0000.0001) %MON extforcing_qnet_del2         =   0.0000000000000E+00
(PID.TID 0000.0001) %MON extforcing_qsw_max           =   0.0000000000000E+00
(PID.TID 0000.0001) %MON extforcing_qsw_min           =   0.0000000000000E+00
(PID.TID 0000.0001) %MON extforcing_qsw_mean          =   0.0000000000000E+00
(PID.TID 0000.0001) %MON extforcing_qsw_sd            =   0.0000000000000E+00
(PID.TID 0000.0001) %MON extforcing_qsw_del2          =   0.0000000000000E+00
(PID.TID 0000.0001) %MON extforcing_empmr_max         =   0.0000000000000E+00
(PID.TID 0000.0001) %MON extforcing_empmr_min         =   0.0000000000000E+00
(PID.TID 0000.0001) %MON extforcing_empmr_mean        =   0.0000000000000E+00
(PID.TID 0000.0001) %MON extforcing_empmr_sd          =   0.0000000000000E+00
(PID.TID 0000.0001) %MON extforcing_empmr_del2        =   0.0000000000000E+00
(PID.TID 0000.0001) %MON advcfl_uvel_max              =   6.0948258736460E-04
(PID.TID 0000.0001) %MON advcfl_vvel_max              =   5.4014342173526E-04
(PID.TID 0000.0001) %MON advcfl_wvel_max              =   8.9525130054502E-04
(PID.TID 0000.0001) %MON advcfl_W_hf_max              =   0.0000000000000E+00
(PID.TID 0000.0001) %MON pe_b_mean                    =   5.4614366929556E-04
(PID.TID 0000.0001) %MON ke_max                       =   2.1786566182978E-02
(PID.TID 0000.0001) %MON ke_mean                      =   6.2647147369291E-04
(PID.TID 0000.0001) %MON ke_vol                       =   6.2001702110790E+17
(PID.TID 0000.0001) %MON vort_r_min                   =  -1.5130986072468E-07
(PID.TID 0000.0001) %MON vort_r_max                   =   1.5130986072467E-07
(PID.TID 0000.0001) %MON vort_a_mean                  =   4.2916559760387E-21
(PID.TID 0000.0001) %MON vort_a_sd                    =   8.8130694514348E-05
(PID.TID 0000.0001) %MON vort_p_mean                  =   4.3511624968410E-21
(PID.TID 0000.0001) %MON vort_p_sd                    =   8.9589383542046E-05
(PID.TID 0000.0001) %MON surfExpan_theta_mean         =   3.8795497573072E-21
(PID.TID 0000.0001) %MON surfExpan_salt_mean          =   0.0000000000000E+00
(PID.TID 0000.0001) // =======================================================
(PID.TID 0000.0001) // End MONITOR dynamic field statistics
(PID.TID 0000.0001) // =======================================================
 cg2d: Sum(rhs),rhsMax =  -1.02170202422373E+02  8.93521670902218E+02
(PID.TID 0000.0001)                    cg2d_init_res =    1.78479170782863E+00
(PID.TID 0000.0001)                       cg2d_iters =     6
(PID.TID 0000.0001)                         cg2d_res =    2.11509529817101E-14
(PID.TID 0000.0001) // =======================================================
(PID.TID 0000.0001) // Begin MONITOR dynamic field statistics
(PID.TID 0000.0001) // =======================================================
(PID.TID 0000.0001) %MON time_tsnumber                =                    20
(PID.TID 0000.0001) %MON time_secondsf                =   1.8000000000000E+04
(PID.TID 0000.0001) %MON dynstat_eta_max              =   2.2211612670347E+00
(PID.TID 0000.0001) %MON dynstat_eta_min              =  -2.3696385379983E+00
(PID.TID 0000.0001) %MON dynstat_eta_mean             =   5.6129684401127E-02
(PID.TID 0000.0001) %MON dynstat_eta_sd               =   3.8610472675652E-01
(PID.TID 0000.0001) %MON dynstat_eta_del2             =   7.7891021307588E-03
(PID.TID 0000.0001) %MON dynstat_uvel_max             =   2.0906749328376E-01
(PID.TID 0000.0001) %MON dynstat_uvel_min             =  -1.6822887301564E-01
(PID.TID 0000.0001) %MON dynstat_uvel_mean            =   1.9403808130632E-03
(PID.TID 0000.0001) %MON dynstat_uvel_sd              =   2.6094378066372E-02
(PID.TID 0000.0001) %MON dynstat_uvel_del2            =   4.4751149960771E-04
(PID.TID 0000.0001) %MON dynstat_vvel_max             =   1.8320742345884E-01
(PID.TID 0000.0001) %MON dynstat_vvel_min             =  -1.8320742345884E-01
(PID.TID 0000.0001) %MON dynstat_vvel_mean            =  -8.4491291822445E-09
(PID.TID 0000.0001) %MON dynstat_vvel_sd              =   2.3903399087951E-02
(PID.TID 0000.0001) %MON dynstat_vvel_del2            =   4.2423318177524E-04
(PID.TID 0000.0001) %MON dynstat_wvel_max             =   5.4222865224967E-04
(PID.TID 0000.0001) %MON dynstat_wvel_min             =  -4.7371904329213E-04
(PID.TID 0000.0001) %MON dynstat_wvel_mean            =  -1.7921158605239E-22
(PID.TID 0000.0001) %MON dynstat_wvel_sd              =   7.2908385937551E-05
(PID.TID 0000.0001) %MON dynstat_wvel_del2            =   2.2690745823071E-06
(PID.TID 0000.0001) %MON dynstat_theta_max            =   1.5000000000000E+01
(PID.TID 0000.0001) %MON dynstat_theta_min            =   1.5000000000000E+01
(PID.TID 0000.0001) %MON dynstat_theta_mean           =   1.5000000000000E+01
(PID.TID 0000.0001) %MON dynstat_theta_sd             =   1.7763568394003E-15
(PID.TID 0000.0001) %MON dynstat_theta_del2           =   0.0000000000000E+00
(PID.TID 0000.0001) %MON dynstat_salt_max             =   0.0000000000000E+00
(PID.TID 0000.0001) %MON dynstat_salt_min             =   0.0000000000000E+00
(PID.TID 0000.0001) %MON dynstat_salt_mean            =   0.0000000000000E+00
(PID.TID 0000.0001) %MON dynstat_salt_sd              =   0.0000000000000E+00
(PID.TID 0000.0001) %MON dynstat_salt_del2            =   0.0000000000000E+00
(PID.TID 0000.0001) %MON extforcing_qnet_max          =   0.0000000000000E+00
(PID.TID 0000.0001) %MON extforcing_qnet_min          =   0.0000000000000E+00
(PID.TID 0000.0001) %MON extforcing_qnet_mean         =   0.0000000000000E+00
(PID.TID 0000.0001) %MON extforcing_qnet_sd           =   0.0000000000000E+00
(PID.TID 0000.0001) %MON extforcing_qnet_del2         =   0.0000000000000E+00
(PID.TID 0000.0001) %MON extforcing_qsw_max           =   0.0000000000000E+00
(PID.TID 0000.0001) %MON extforcing_qsw_min           =   0.0000000000000E+00
(PID.TID 0000.0001) %MON extforcing_qsw_mean          =   0.0000000000000E+00
(PID.TID 0000.0001) %MON extforcing_qsw_sd            =   0.0000000000000E+00
(PID.TID 0000.0001) %MON extforcing_qsw_del2          =   0.0000000000000E+00
(PID.TID 0000.0001) %MON extforcing_empmr_max         =   0.0000000000000E+00
(PID.TID 0000.0001) %MON extforcing_empmr_min         =   0.0000000000000E+00
(PID.TID 0000.0001) %MON extforcing_empmr_mean        =   0.0000000000000E+00
(PID.TID 0000.0001) %MON extforcing_empmr_sd          =   0.0000000000000E+00
(PID.TID 0000.0001) %MON extforcing_empmr_del2        =   0.0000000000000E+00
(PID.TID 0000.0001) %MON advcfl_uvel_max              =   5.9755674071213E-04
(PID.TID 0000.0001) %MON advcfl_vvel_max              =   5.2488020270343E-04
(PID.TID 0000.0001) %MON advcfl_wvel_max              =   7.1450334849884E-04
(PID.TID 0000.0001) %MON advcfl_W_hf_max              =   0.0000000000000E+00
(PID.TID 0000.0001) %MON pe_b_mean                    =   5.4708254715796E-04
(PID.TID 0000.0001) %MON ke_max                       =   2.0907764077253E-02
(PID.TID 0000.0001) %MON ke_mean                      =   6.2541105623002E-04
(PID.TID 0000.0001) %MON ke_vol                       =   6.2001702110790E+17
(PID.TID 0000.0001) %MON vort_r_min                   =  -1.5090234185665E-07
(PID.TID 0000.0001) %MON vort_r_max                   =   1.5090234185664E-07
(PID.TID 0000.0001) %MON vort_a_mean                  =   5.0719570625912E-21
(PID.TID 0000.0001) %MON vort_a_sd                    =   8.8130737039134E-05
(PID.TID 0000.0001) %MON vort_p_mean                  =   5.1422829508121E-21
(PID.TID 0000.0001) %MON vort_p_sd                    =   8.9589425928713E-05
(PID.TID 0000.0001) %MON surfExpan_theta_mean         =   3.7934679189298E-21
(PID.TID 0000.0001) %MON surfExpan_salt_mean          =   0.0000000000000E+00
(PID.TID 0000.0001) // =======================================================
(PID.TID 0000.0001) // End MONITOR dynamic field statistics
(PID.TID 0000.0001) // =======================================================
 cg2d: Sum(rhs),rhsMax =  -1.11288775990401E+02  8.20309947453560E+02
(PID.TID 0000.0001)                    cg2d_init_res =    1.92949915614580E+00
(PID.TID 0000.0001)                       cg2d_iters =     6
(PID.TID 0000.0001)                         cg2d_res =    3.39926133604254E-14
(PID.TID 0000.0001) // =======================================================
(PID.TID 0000.0001) // Begin MONITOR dynamic field statistics
(PID.TID 0000.0001) // =======================================================
(PID.TID 0000.0001) %MON time_tsnumber                =                    21
(PID.TID 0000.0001) %MON time_secondsf                =   1.8900000000000E+04
(PID.TID 0000.0001) %MON dynstat_eta_max              =   2.2048983283263E+00
(PID.TID 0000.0001) %MON dynstat_eta_min              =  -2.1857647594298E+00
(PID.TID 0000.0001) %MON dynstat_eta_mean             =   5.6129684401127E-02
(PID.TID 0000.0001) %MON dynstat_eta_sd               =   3.8616442891732E-01
(PID.TID 0000.0001) %MON dynstat_eta_del2             =   7.8880413039106E-03
(PID.TID 0000.0001) %MON dynstat_uvel_max             =   2.0163868817345E-01
(PID.TID 0000.0001) %MON dynstat_uvel_min             =  -1.6582348586626E-01
(PID.TID 0000.0001) %MON dynstat_uvel_mean            =   2.1251331022782E-03
(PID.TID 0000.0001) %MON dynstat_uvel_sd              =   2.6203438668323E-02
(PID.TID 0000.0001) %MON dynstat_uvel_del2            =   4.5839195665933E-04
(PID.TID 0000.0001) %MON dynstat_vvel_max             =   1.7701361339246E-01
(PID.TID 0000.0001) %MON dynstat_vvel_min             =  -1.7701361339245E-01
(PID.TID 0000.0001) %MON dynstat_vvel_mean            =  -1.9884384104110E-08
(PID.TID 0000.0001) %MON dynstat_vvel_sd              =   2.3753753160093E-02
(PID.TID 0000.0001) %MON dynstat_vvel_del2            =   4.3050950923703E-04
(PID.TID 0000.0001) %MON dynstat_wvel_max             =   3.6945758872854E-04
(PID.TID 0000.0001) %MON dynstat_wvel_min             =  -4.4979601453819E-04
(PID.TID 0000.0001) %MON dynstat_wvel_mean            =   5.1111382273505E-22
(PID.TID 0000.0001) %MON dynstat_wvel_sd              =   7.2672471126106E-05
(PID.TID 0000.0001) %MON dynstat_wvel_del2            =   2.3313919983850E-06
(PID.TID 0000.0001) %MON dynstat_theta_max            =   1.5000000000000E+01
(PID.TID 0000.0001) %MON dynstat_theta_min            =   1.5000000000000E+01
(PID.TID 0000.0001) %MON dynstat_theta_mean           =   1.5000000000000E+01
(PID.TID 0000.0001) %MON dynstat_theta_sd             =   1.7763568394003E-15
(PID.TID 0000.0001) %MON dynstat_theta_del2           =   0.0000000000000E+00
(PID.TID 0000.0001) %MON dynstat_salt_max             =   0.0000000000000E+00
(PID.TID 0000.0001) %MON dynstat_salt_min             =   0.0000000000000E+00
(PID.TID 0000.0001) %MON dynstat_salt_mean            =   0.0000000000000E+00
(PID.TID 0000.0001) %MON dynstat_salt_sd              =   0.0000000000000E+00
(PID.TID 0000.0001) %MON dynstat_salt_del2            =   0.0000000000000E+00
(PID.TID 0000.0001) %MON extforcing_qnet_max          =   0.0000000000000E+00
(PID.TID 0000.0001) %MON extforcing_qnet_min          =   0.0000000000000E+00
(PID.TID 0000.0001) %MON extforcing_qnet_mean         =   0.0000000000000E+00
(PID.TID 0000.0001) %MON extforcing_qnet_sd           =   0.0000000000000E+00
(PID.TID 0000.0001) %MON extforcing_qnet_del2         =   0.0000000000000E+00
(PID.TID 0000.0001) %MON extforcing_qsw_max           =   0.0000000000000E+00
(PID.TID 0000.0001) %MON extforcing_qsw_min           =   0.0000000000000E+00
(PID.TID 0000.0001) %MON extforcing_qsw_mean          =   0.0000000000000E+00
(PID.TID 0000.0001) %MON extforcing_qsw_sd            =   0.0000000000000E+00
(PID.TID 0000.0001) %MON extforcing_qsw_del2          =   0.0000000000000E+00
(PID.TID 0000.0001) %MON extforcing_empmr_max         =   0.0000000000000E+00
(PID.TID 0000.0001) %MON extforcing_empmr_min         =   0.0000000000000E+00
(PID.TID 0000.0001) %MON extforcing_empmr_mean        =   0.0000000000000E+00
(PID.TID 0000.0001) %MON extforcing_empmr_sd          =   0.0000000000000E+00
(PID.TID 0000.0001) %MON extforcing_empmr_del2        =   0.0000000000000E+00
(PID.TID 0000.0001) %MON advcfl_uvel_max              =   5.7796967412561E-04
(PID.TID 0000.0001) %MON advcfl_vvel_max              =   5.0909187162709E-04
(PID.TID 0000.0001) %MON advcfl_wvel_max              =   5.9270338665354E-04
(PID.TID 0000.0001) %MON advcfl_W_hf_max              =   0.0000000000000E+00
(PID.TID 0000.0001) %MON pe_b_mean                    =   5.4724824572991E-04
(PID.TID 0000.0001) %MON ke_max                       =   2.0279292468776E-02
(PID.TID 0000.0001) %MON ke_mean                      =   6.2510374175270E-04
(PID.TID 0000.0001) %MON ke_vol                       =   6.2001702110790E+17
(PID.TID 0000.0001) %MON vort_r_min                   =  -1.4875206065787E-07
(PID.TID 0000.0001) %MON vort_r_max                   =   1.4875206065786E-07
(PID.TID 0000.0001) %MON vort_a_mean                  =   1.5606021731050E-21
(PID.TID 0000.0001) %MON vort_a_sd                    =   8.8130780738701E-05
(PID.TID 0000.0001) %MON vort_p_mean                  =   1.5822409079422E-21
(PID.TID 0000.0001) %MON vort_p_sd                    =   8.9589469458412E-05
(PID.TID 0000.0001) %MON surfExpan_theta_mean         =  -1.2604625357698E-20
(PID.TID 0000.0001) %MON surfExpan_salt_mean          =   0.0000000000000E+00
(PID.TID 0000.0001) // =======================================================
(PID.TID 0000.0001) // End MONITOR dynamic field statistics
(PID.TID 0000.0001) // =======================================================
 cg2d: Sum(rhs),rhsMax =  -1.17466911179664E+02  7.77166004179914E+02
(PID.TID 0000.0001)                    cg2d_init_res =    2.02875484120618E+00
(PID.TID 0000.0001)                       cg2d_iters =     6
(PID.TID 0000.0001)                         cg2d_res =    5.68735987194648E-14
(PID.TID 0000.0001) // =======================================================
(PID.TID 0000.0001) // Begin MONITOR dynamic field statistics
(PID.TID 0000.0001) // =======================================================
(PID.TID 0000.0001) %MON time_tsnumber                =                    22
(PID.TID 0000.0001) %MON time_secondsf                =   1.9800000000000E+04
(PID.TID 0000.0001) %MON dynstat_eta_max              =   2.1703314731010E+00
(PID.TID 0000.0001) %MON dynstat_eta_min              =  -2.0726386118604E+00
(PID.TID 0000.0001) %MON dynstat_eta_mean             =   5.6129684401127E-02
(PID.TID 0000.0001) %MON dynstat_eta_sd               =   3.8587454725393E-01
(PID.TID 0000.0001) %MON dynstat_eta_del2             =   8.0490006574933E-03
(PID.TID 0000.0001) %MON dynstat_uvel_max             =   2.0275453465606E-01
(PID.TID 0000.0001) %MON dynstat_uvel_min             =  -1.6219837997047E-01
(PID.TID 0000.0001) %MON dynstat_uvel_mean            =   2.3155419018341E-03
(PID.TID 0000.0001) %MON dynstat_uvel_sd              =   2.6332298977739E-02
(PID.TID 0000.0001) %MON dynstat_uvel_del2            =   4.7627976199913E-04
(PID.TID 0000.0001) %MON dynstat_vvel_max             =   1.7165088320867E-01
(PID.TID 0000.0001) %MON dynstat_vvel_min             =  -1.7165088320866E-01
(PID.TID 0000.0001) %MON dynstat_vvel_mean            =  -4.4849171404243E-08
(PID.TID 0000.0001) %MON dynstat_vvel_sd              =   2.3618984515168E-02
(PID.TID 0000.0001) %MON dynstat_vvel_del2            =   4.4661905129747E-04
(PID.TID 0000.0001) %MON dynstat_wvel_max             =   3.6169153563770E-04
(PID.TID 0000.0001) %MON dynstat_wvel_min             =  -4.3481036663507E-04
(PID.TID 0000.0001) %MON dynstat_wvel_mean            =   2.9940898367796E-22
(PID.TID 0000.0001) %MON dynstat_wvel_sd              =   7.2681226278388E-05
(PID.TID 0000.0001) %MON dynstat_wvel_del2            =   2.4933052853401E-06
(PID.TID 0000.0001) %MON dynstat_theta_max            =   1.5000000000000E+01
(PID.TID 0000.0001) %MON dynstat_theta_min            =   1.5000000000000E+01
(PID.TID 0000.0001) %MON dynstat_theta_mean           =   1.5000000000000E+01
(PID.TID 0000.0001) %MON dynstat_theta_sd             =   1.7763568394003E-15
(PID.TID 0000.0001) %MON dynstat_theta_del2           =   0.0000000000000E+00
(PID.TID 0000.0001) %MON dynstat_salt_max             =   0.0000000000000E+00
(PID.TID 0000.0001) %MON dynstat_salt_min             =   0.0000000000000E+00
(PID.TID 0000.0001) %MON dynstat_salt_mean            =   0.0000000000000E+00
(PID.TID 0000.0001) %MON dynstat_salt_sd              =   0.0000000000000E+00
(PID.TID 0000.0001) %MON dynstat_salt_del2            =   0.0000000000000E+00
(PID.TID 0000.0001) %MON extforcing_qnet_max          =   0.0000000000000E+00
(PID.TID 0000.0001) %MON extforcing_qnet_min          =   0.0000000000000E+00
(PID.TID 0000.0001) %MON extforcing_qnet_mean         =   0.0000000000000E+00
(PID.TID 0000.0001) %MON extforcing_qnet_sd           =   0.0000000000000E+00
(PID.TID 0000.0001) %MON extforcing_qnet_del2         =   0.0000000000000E+00
(PID.TID 0000.0001) %MON extforcing_qsw_max           =   0.0000000000000E+00
(PID.TID 0000.0001) %MON extforcing_qsw_min           =   0.0000000000000E+00
(PID.TID 0000.0001) %MON extforcing_qsw_mean          =   0.0000000000000E+00
(PID.TID 0000.0001) %MON extforcing_qsw_sd            =   0.0000000000000E+00
(PID.TID 0000.0001) %MON extforcing_qsw_del2          =   0.0000000000000E+00
(PID.TID 0000.0001) %MON extforcing_empmr_max         =   0.0000000000000E+00
(PID.TID 0000.0001) %MON extforcing_empmr_min         =   0.0000000000000E+00
(PID.TID 0000.0001) %MON extforcing_empmr_mean        =   0.0000000000000E+00
(PID.TID 0000.0001) %MON extforcing_empmr_sd          =   0.0000000000000E+00
(PID.TID 0000.0001) %MON extforcing_empmr_del2        =   0.0000000000000E+00
(PID.TID 0000.0001) %MON advcfl_uvel_max              =   5.8356635293466E-04
(PID.TID 0000.0001) %MON advcfl_vvel_max              =   4.9518534075572E-04
(PID.TID 0000.0001) %MON advcfl_wvel_max              =   5.7295655925558E-04
(PID.TID 0000.0001) %MON advcfl_W_hf_max              =   0.0000000000000E+00
(PID.TID 0000.0001) %MON pe_b_mean                    =   5.4644394215869E-04
(PID.TID 0000.0001) %MON ke_max                       =   1.9576003023800E-02
(PID.TID 0000.0001) %MON ke_mean                      =   6.2574690978275E-04
(PID.TID 0000.0001) %MON ke_vol                       =   6.2001702110790E+17
(PID.TID 0000.0001) %MON vort_r_min                   =  -1.4525479096467E-07
(PID.TID 0000.0001) %MON vort_r_max                   =   1.4525479096467E-07
(PID.TID 0000.0001) %MON vort_a_mean                  =   7.0227097789725E-21
(PID.TID 0000.0001) %MON vort_a_sd                    =   8.8130825435183E-05
(PID.TID 0000.0001) %MON vort_p_mean                  =   7.1200840857398E-21
(PID.TID 0000.0001) %MON vort_p_sd                    =   8.9589513926700E-05
(PID.TID 0000.0001) %MON surfExpan_theta_mean         =  -8.5952314866374E-21
(PID.TID 0000.0001) %MON surfExpan_salt_mean          =   0.0000000000000E+00
(PID.TID 0000.0001) // =======================================================
(PID.TID 0000.0001) // End MONITOR dynamic field statistics
(PID.TID 0000.0001) // =======================================================
 cg2d: Sum(rhs),rhsMax =  -1.21013449555450E+02  7.54389618015357E+02
(PID.TID 0000.0001)                    cg2d_init_res =    2.08753291551792E+00
(PID.TID 0000.0001)                       cg2d_iters =     7
(PID.TID 0000.0001)                         cg2d_res =    4.31248279944077E-15
(PID.TID 0000.0001) // =======================================================
(PID.TID 0000.0001) // Begin MONITOR dynamic field statistics
(PID.TID 0000.0001) // =======================================================
(PID.TID 0000.0001) %MON time_tsnumber                =                    23
(PID.TID 0000.0001) %MON time_secondsf                =   2.0700000000000E+04
(PID.TID 0000.0001) %MON dynstat_eta_max              =   2.1484824076621E+00
(PID.TID 0000.0001) %MON dynstat_eta_min              =  -2.0192406628363E+00
(PID.TID 0000.0001) %MON dynstat_eta_mean             =   5.6129684401127E-02
(PID.TID 0000.0001) %MON dynstat_eta_sd               =   3.8529661387809E-01
(PID.TID 0000.0001) %MON dynstat_eta_del2             =   8.2363573282030E-03
(PID.TID 0000.0001) %MON dynstat_uvel_max             =   1.9978413929462E-01
(PID.TID 0000.0001) %MON dynstat_uvel_min             =  -1.5259205158356E-01
(PID.TID 0000.0001) %MON dynstat_uvel_mean            =   2.5109472987974E-03
(PID.TID 0000.0001) %MON dynstat_uvel_sd              =   2.6476539510401E-02
(PID.TID 0000.0001) %MON dynstat_uvel_del2            =   4.9014366364812E-04
(PID.TID 0000.0001) %MON dynstat_vvel_max             =   1.6799342866893E-01
(PID.TID 0000.0001) %MON dynstat_vvel_min             =  -1.6799342866892E-01
(PID.TID 0000.0001) %MON dynstat_vvel_mean            =  -9.7171626058558E-08
(PID.TID 0000.0001) %MON dynstat_vvel_sd              =   2.3496596534985E-02
(PID.TID 0000.0001) %MON dynstat_vvel_del2            =   4.5611972780977E-04
(PID.TID 0000.0001) %MON dynstat_wvel_max             =   3.4211293362235E-04
(PID.TID 0000.0001) %MON dynstat_wvel_min             =  -4.3314105918292E-04
(PID.TID 0000.0001) %MON dynstat_wvel_mean            =  -2.1406612759830E-22
(PID.TID 0000.0001) %MON dynstat_wvel_sd              =   7.2779396657333E-05
(PID.TID 0000.0001) %MON dynstat_wvel_del2            =   2.5943398088969E-06
(PID.TID 0000.0001) %MON dynstat_theta_max            =   1.5000000000000E+01
(PID.TID 0000.0001) %MON dynstat_theta_min            =   1.5000000000000E+01
(PID.TID 0000.0001) %MON dynstat_theta_mean           =   1.5000000000000E+01
(PID.TID 0000.0001) %MON dynstat_theta_sd             =   1.7763568394003E-15
(PID.TID 0000.0001) %MON dynstat_theta_del2           =   0.0000000000000E+00
(PID.TID 0000.0001) %MON dynstat_salt_max             =   0.0000000000000E+00
(PID.TID 0000.0001) %MON dynstat_salt_min             =   0.0000000000000E+00
(PID.TID 0000.0001) %MON dynstat_salt_mean            =   0.0000000000000E+00
(PID.TID 0000.0001) %MON dynstat_salt_sd              =   0.0000000000000E+00
(PID.TID 0000.0001) %MON dynstat_salt_del2            =   0.0000000000000E+00
(PID.TID 0000.0001) %MON extforcing_qnet_max          =   0.0000000000000E+00
(PID.TID 0000.0001) %MON extforcing_qnet_min          =   0.0000000000000E+00
(PID.TID 0000.0001) %MON extforcing_qnet_mean         =   0.0000000000000E+00
(PID.TID 0000.0001) %MON extforcing_qnet_sd           =   0.0000000000000E+00
(PID.TID 0000.0001) %MON extforcing_qnet_del2         =   0.0000000000000E+00
(PID.TID 0000.0001) %MON extforcing_qsw_max           =   0.0000000000000E+00
(PID.TID 0000.0001) %MON extforcing_qsw_min           =   0.0000000000000E+00
(PID.TID 0000.0001) %MON extforcing_qsw_mean          =   0.0000000000000E+00
(PID.TID 0000.0001) %MON extforcing_qsw_sd            =   0.0000000000000E+00
(PID.TID 0000.0001) %MON extforcing_qsw_del2          =   0.0000000000000E+00
(PID.TID 0000.0001) %MON extforcing_empmr_max         =   0.0000000000000E+00
(PID.TID 0000.0001) %MON extforcing_empmr_min         =   0.0000000000000E+00
(PID.TID 0000.0001) %MON extforcing_empmr_mean        =   0.0000000000000E+00
(PID.TID 0000.0001) %MON extforcing_empmr_sd          =   0.0000000000000E+00
(PID.TID 0000.0001) %MON extforcing_empmr_del2        =   0.0000000000000E+00
(PID.TID 0000.0001) %MON advcfl_uvel_max              =   5.7543153891942E-04
(PID.TID 0000.0001) %MON advcfl_vvel_max              =   4.8686273468701E-04
(PID.TID 0000.0001) %MON advcfl_wvel_max              =   5.7075688618540E-04
(PID.TID 0000.0001) %MON advcfl_W_hf_max              =   0.0000000000000E+00
(PID.TID 0000.0001) %MON pe_b_mean                    =   5.4484221484219E-04
(PID.TID 0000.0001) %MON ke_max                       =   1.8939882314856E-02
(PID.TID 0000.0001) %MON ke_mean                      =   6.2716867404057E-04
(PID.TID 0000.0001) %MON ke_vol                       =   6.2001702110790E+17
(PID.TID 0000.0001) %MON vort_r_min                   =  -1.4083805160555E-07
(PID.TID 0000.0001) %MON vort_r_max                   =   1.4083805160555E-07
(PID.TID 0000.0001) %MON vort_a_mean                  =   5.0719570625912E-21
(PID.TID 0000.0001) %MON vort_a_sd                    =   8.8130870930792E-05
(PID.TID 0000.0001) %MON vort_p_mean                  =   5.1422829508121E-21
(PID.TID 0000.0001) %MON vort_p_sd                    =   8.9589559088159E-05
(PID.TID 0000.0001) %MON surfExpan_theta_mean         =   8.0827800510232E-21
(PID.TID 0000.0001) %MON surfExpan_salt_mean          =   0.0000000000000E+00
(PID.TID 0000.0001) // =======================================================
(PID.TID 0000.0001) // End MONITOR dynamic field statistics
(PID.TID 0000.0001) // =======================================================
 cg2d: Sum(rhs),rhsMax =  -1.21923616564236E+02  7.48758054898739E+02
(PID.TID 0000.0001)                    cg2d_init_res =    2.10016297256909E+00
(PID.TID 0000.0001)                       cg2d_iters =     7
(PID.TID 0000.0001)                         cg2d_res =    7.09516017482943E-15
(PID.TID 0000.0001) // =======================================================
(PID.TID 0000.0001) // Begin MONITOR dynamic field statistics
(PID.TID 0000.0001) // =======================================================
(PID.TID 0000.0001) %MON time_tsnumber                =                    24
(PID.TID 0000.0001) %MON time_secondsf                =   2.1600000000000E+04
(PID.TID 0000.0001) %MON dynstat_eta_max              =   2.1418158409130E+00
(PID.TID 0000.0001) %MON dynstat_eta_min              =  -1.9527932729557E+00
(PID.TID 0000.0001) %MON dynstat_eta_mean             =   5.6129684401127E-02
(PID.TID 0000.0001) %MON dynstat_eta_sd               =   3.8454669789268E-01
(PID.TID 0000.0001) %MON dynstat_eta_del2             =   8.4668402635239E-03
(PID.TID 0000.0001) %MON dynstat_uvel_max             =   1.9380120944958E-01
(PID.TID 0000.0001) %MON dynstat_uvel_min             =  -1.5202589341494E-01
(PID.TID 0000.0001) %MON dynstat_uvel_mean            =   2.7105929277403E-03
(PID.TID 0000.0001) %MON dynstat_uvel_sd              =   2.6628900232209E-02
(PID.TID 0000.0001) %MON dynstat_uvel_del2            =   5.0084382463040E-04
(PID.TID 0000.0001) %MON dynstat_vvel_max             =   1.6233741584058E-01
(PID.TID 0000.0001) %MON dynstat_vvel_min             =  -1.6233741584057E-01
(PID.TID 0000.0001) %MON dynstat_vvel_mean            =  -2.0265977566090E-07
(PID.TID 0000.0001) %MON dynstat_vvel_sd              =   2.3380836961810E-02
(PID.TID 0000.0001) %MON dynstat_vvel_del2            =   4.6869339470530E-04
(PID.TID 0000.0001) %MON dynstat_wvel_max             =   3.3827879163934E-04
(PID.TID 0000.0001) %MON dynstat_wvel_min             =  -4.1590758416419E-04
(PID.TID 0000.0001) %MON dynstat_wvel_mean            =   1.8721593362134E-21
(PID.TID 0000.0001) %MON dynstat_wvel_sd              =   7.2793289866205E-05
(PID.TID 0000.0001) %MON dynstat_wvel_del2            =   2.6713619431893E-06
(PID.TID 0000.0001) %MON dynstat_theta_max            =   1.5000000000000E+01
(PID.TID 0000.0001) %MON dynstat_theta_min            =   1.5000000000000E+01
(PID.TID 0000.0001) %MON dynstat_theta_mean           =   1.5000000000000E+01
(PID.TID 0000.0001) %MON dynstat_theta_sd             =   1.7763568394003E-15
(PID.TID 0000.0001) %MON dynstat_theta_del2           =   0.0000000000000E+00
(PID.TID 0000.0001) %MON dynstat_salt_max             =   0.0000000000000E+00
(PID.TID 0000.0001) %MON dynstat_salt_min             =   0.0000000000000E+00
(PID.TID 0000.0001) %MON dynstat_salt_mean            =   0.0000000000000E+00
(PID.TID 0000.0001) %MON dynstat_salt_sd              =   0.0000000000000E+00
(PID.TID 0000.0001) %MON dynstat_salt_del2            =   0.0000000000000E+00
(PID.TID 0000.0001) %MON extforcing_qnet_max          =   0.0000000000000E+00
(PID.TID 0000.0001) %MON extforcing_qnet_min          =   0.0000000000000E+00
(PID.TID 0000.0001) %MON extforcing_qnet_mean         =   0.0000000000000E+00
(PID.TID 0000.0001) %MON extforcing_qnet_sd           =   0.0000000000000E+00
(PID.TID 0000.0001) %MON extforcing_qnet_del2         =   0.0000000000000E+00
(PID.TID 0000.0001) %MON extforcing_qsw_max           =   0.0000000000000E+00
(PID.TID 0000.0001) %MON extforcing_qsw_min           =   0.0000000000000E+00
(PID.TID 0000.0001) %MON extforcing_qsw_mean          =   0.0000000000000E+00
(PID.TID 0000.0001) %MON extforcing_qsw_sd            =   0.0000000000000E+00
(PID.TID 0000.0001) %MON extforcing_qsw_del2          =   0.0000000000000E+00
(PID.TID 0000.0001) %MON extforcing_empmr_max         =   0.0000000000000E+00
(PID.TID 0000.0001) %MON extforcing_empmr_min         =   0.0000000000000E+00
(PID.TID 0000.0001) %MON extforcing_empmr_mean        =   0.0000000000000E+00
(PID.TID 0000.0001) %MON extforcing_empmr_sd          =   0.0000000000000E+00
(PID.TID 0000.0001) %MON extforcing_empmr_del2        =   0.0000000000000E+00
(PID.TID 0000.0001) %MON advcfl_uvel_max              =   5.6165641457453E-04
(PID.TID 0000.0001) %MON advcfl_vvel_max              =   4.7368721368999E-04
(PID.TID 0000.0001) %MON advcfl_wvel_max              =   5.4804806112412E-04
(PID.TID 0000.0001) %MON advcfl_W_hf_max              =   0.0000000000000E+00
(PID.TID 0000.0001) %MON pe_b_mean                    =   5.4276742086560E-04
(PID.TID 0000.0001) %MON ke_max                       =   1.8269160781483E-02
(PID.TID 0000.0001) %MON ke_mean                      =   6.2904542573355E-04
(PID.TID 0000.0001) %MON ke_vol                       =   6.2001702110790E+17
(PID.TID 0000.0001) %MON vort_r_min                   =  -1.3591502297809E-07
(PID.TID 0000.0001) %MON vort_r_max                   =   1.3591502297809E-07
(PID.TID 0000.0001) %MON vort_a_mean                  =  -3.9015054327625E-22
(PID.TID 0000.0001) %MON vort_a_sd                    =   8.8130917002502E-05
(PID.TID 0000.0001) %MON vort_p_mean                  =  -3.9556022698554E-22
(PID.TID 0000.0001) %MON vort_p_sd                    =   8.9589604638187E-05
(PID.TID 0000.0001) %MON surfExpan_theta_mean         =  -5.4876931513516E-21
(PID.TID 0000.0001) %MON surfExpan_salt_mean          =   0.0000000000000E+00
(PID.TID 0000.0001) // =======================================================
(PID.TID 0000.0001) // End MONITOR dynamic field statistics
(PID.TID 0000.0001) // =======================================================
(PID.TID 0000.0001) %CHECKPOINT        24 ckptA
(PID.TID 0000.0001)   Seconds in section "ALL                    [THE_MODEL_MAIN]":
(PID.TID 0000.0001)           User time:  3.61645011
(PID.TID 0000.0001)         System time:  0.110982999
(PID.TID 0000.0001)     Wall clock time:  3.86336398
(PID.TID 0000.0001)          No. starts: 1
(PID.TID 0000.0001)           No. stops: 1
(PID.TID 0000.0001)   Seconds in section "INITIALISE_FIXED       [THE_MODEL_MAIN]":
(PID.TID 0000.0001)           User time:  0.321951015
(PID.TID 0000.0001)         System time:  0.0689899998
(PID.TID 0000.0001)     Wall clock time:  0.46380496
(PID.TID 0000.0001)          No. starts: 1
(PID.TID 0000.0001)           No. stops: 1
(PID.TID 0000.0001)   Seconds in section "THE_MAIN_LOOP          [THE_MODEL_MAIN]":
(PID.TID 0000.0001)           User time:  3.2944991
(PID.TID 0000.0001)         System time:  0.0419929996
(PID.TID 0000.0001)     Wall clock time:  3.39942408
(PID.TID 0000.0001)          No. starts: 1
(PID.TID 0000.0001)           No. stops: 1
(PID.TID 0000.0001)   Seconds in section "INITIALISE_VARIA    [THE_MAIN_LOOP]":
(PID.TID 0000.0001)           User time:  0.0989849865
(PID.TID 0000.0001)         System time:  0.00999800116
(PID.TID 0000.0001)     Wall clock time:  0.16378808
(PID.TID 0000.0001)          No. starts: 1
(PID.TID 0000.0001)           No. stops: 1
(PID.TID 0000.0001)   Seconds in section "MAIN LOOP           [THE_MAIN_LOOP]":
(PID.TID 0000.0001)           User time:  3.19551411
(PID.TID 0000.0001)         System time:  0.0319949985
(PID.TID 0000.0001)     Wall clock time:  3.23551297
(PID.TID 0000.0001)          No. starts: 1
(PID.TID 0000.0001)           No. stops: 1
(PID.TID 0000.0001)   Seconds in section "FORWARD_STEP        [THE_MAIN_LOOP]":
(PID.TID 0000.0001)           User time:  3.19351402
(PID.TID 0000.0001)         System time:  0.0319949985
(PID.TID 0000.0001)     Wall clock time:  3.23444748
(PID.TID 0000.0001)          No. starts: 24
(PID.TID 0000.0001)           No. stops: 24
(PID.TID 0000.0001)   Seconds in section "LOAD_FIELDS_DRIVER  [FORWARD_STEP]":
(PID.TID 0000.0001)           User time:  0.00100004673
(PID.TID 0000.0001)         System time:  0.
(PID.TID 0000.0001)     Wall clock time:  0.00288677216
(PID.TID 0000.0001)          No. starts: 24
(PID.TID 0000.0001)           No. stops: 24
(PID.TID 0000.0001)   Seconds in section "EXTERNAL_FLDS_LOAD [LOAD_FLDS_DRIVER]":
(PID.TID 0000.0001)           User time:  0.
(PID.TID 0000.0001)         System time:  0.
(PID.TID 0000.0001)     Wall clock time:  0.000960111618
(PID.TID 0000.0001)          No. starts: 24
(PID.TID 0000.0001)           No. stops: 24
(PID.TID 0000.0001)   Seconds in section "DO_ATMOSPHERIC_PHYS [FORWARD_STEP]":
(PID.TID 0000.0001)           User time:  0.
(PID.TID 0000.0001)         System time:  0.
(PID.TID 0000.0001)     Wall clock time:  0.000952005386
(PID.TID 0000.0001)          No. starts: 24
(PID.TID 0000.0001)           No. stops: 24
(PID.TID 0000.0001)   Seconds in section "DO_OCEANIC_PHYS     [FORWARD_STEP]":
(PID.TID 0000.0001)           User time:  0.091988802
(PID.TID 0000.0001)         System time:  0.000999994576
(PID.TID 0000.0001)     Wall clock time:  0.089823246
(PID.TID 0000.0001)          No. starts: 24
(PID.TID 0000.0001)           No. stops: 24
(PID.TID 0000.0001)   Seconds in section "THERMODYNAMICS      [FORWARD_STEP]":
(PID.TID 0000.0001)           User time:  0.00100004673
(PID.TID 0000.0001)         System time:  0.
(PID.TID 0000.0001)     Wall clock time:  0.00104188919
(PID.TID 0000.0001)          No. starts: 24
(PID.TID 0000.0001)           No. stops: 24
(PID.TID 0000.0001)   Seconds in section "DYNAMICS            [FORWARD_STEP]":
(PID.TID 0000.0001)           User time:  0.713885754
(PID.TID 0000.0001)         System time:  0.00200000405
(PID.TID 0000.0001)     Wall clock time:  0.718620777
(PID.TID 0000.0001)          No. starts: 24
(PID.TID 0000.0001)           No. stops: 24
(PID.TID 0000.0001)   Seconds in section "SOLVE_FOR_PRESSURE  [FORWARD_STEP]":
(PID.TID 0000.0001)           User time:  1.12983125
(PID.TID 0000.0001)         System time:  0.00500000268
(PID.TID 0000.0001)     Wall clock time:  1.13598442
(PID.TID 0000.0001)          No. starts: 24
(PID.TID 0000.0001)           No. stops: 24
(PID.TID 0000.0001)   Seconds in section "MOM_CORRECTION_STEP [FORWARD_STEP]":
(PID.TID 0000.0001)           User time:  0.18897444
(PID.TID 0000.0001)         System time:  0.0029990077
(PID.TID 0000.0001)     Wall clock time:  0.194027185
(PID.TID 0000.0001)          No. starts: 24
(PID.TID 0000.0001)           No. stops: 24
(PID.TID 0000.0001)   Seconds in section "UPDATE_ETAH         [FORWARD_STEP]":
(PID.TID 0000.0001)           User time:  0.0569915175
(PID.TID 0000.0001)         System time:  0.
(PID.TID 0000.0001)     Wall clock time:  0.0543208122
(PID.TID 0000.0001)          No. starts: 24
(PID.TID 0000.0001)           No. stops: 24
(PID.TID 0000.0001)   Seconds in section "TRC_CORRECTION_STEP [FORWARD_STEP]":
(PID.TID 0000.0001)           User time:  0.
(PID.TID 0000.0001)         System time:  0.
(PID.TID 0000.0001)     Wall clock time:  0.000949144363
(PID.TID 0000.0001)          No. starts: 24
(PID.TID 0000.0001)           No. stops: 24
(PID.TID 0000.0001)   Seconds in section "BLOCKING_EXCHANGES  [FORWARD_STEP]":
(PID.TID 0000.0001)           User time:  0.218963325
(PID.TID 0000.0001)         System time:  0.00200000405
(PID.TID 0000.0001)     Wall clock time:  0.22123003
(PID.TID 0000.0001)          No. starts: 24
(PID.TID 0000.0001)           No. stops: 24
(PID.TID 0000.0001)   Seconds in section "MONITOR             [FORWARD_STEP]":
(PID.TID 0000.0001)           User time:  0.722890377
(PID.TID 0000.0001)         System time:  0.00799798965
(PID.TID 0000.0001)     Wall clock time:  0.738797903
(PID.TID 0000.0001)          No. starts: 24
(PID.TID 0000.0001)           No. stops: 24
(PID.TID 0000.0001)   Seconds in section "DO_THE_MODEL_IO     [FORWARD_STEP]":
(PID.TID 0000.0001)           User time:  0.0329961777
(PID.TID 0000.0001)         System time:  0.0109979957
(PID.TID 0000.0001)     Wall clock time:  0.0421655178
(PID.TID 0000.0001)          No. starts: 24
(PID.TID 0000.0001)           No. stops: 24
(PID.TID 0000.0001)   Seconds in section "DO_WRITE_PICKUP     [FORWARD_STEP]":
(PID.TID 0000.0001)           User time:  0.0179970264
(PID.TID 0000.0001)         System time:  0.
(PID.TID 0000.0001)     Wall clock time:  0.0195102692
(PID.TID 0000.0001)          No. starts: 24
(PID.TID 0000.0001)           No. stops: 24
(PID.TID 0000.0001) // ======================================================
(PID.TID 0000.0001) // Tile <-> Tile communication statistics
(PID.TID 0000.0001) // ======================================================
(PID.TID 0000.0001) // o Tile number: 000001
(PID.TID 0000.0001) //         No. X exchanges =              0
(PID.TID 0000.0001) //            Max. X spins =              0
(PID.TID 0000.0001) //            Min. X spins =     1000000000
(PID.TID 0000.0001) //          Total. X spins =              0
(PID.TID 0000.0001) //            Avg. X spins =       0.00E+00
(PID.TID 0000.0001) //         No. Y exchanges =              0
(PID.TID 0000.0001) //            Max. Y spins =              0
(PID.TID 0000.0001) //            Min. Y spins =     1000000000
(PID.TID 0000.0001) //          Total. Y spins =              0
(PID.TID 0000.0001) //            Avg. Y spins =       0.00E+00
(PID.TID 0000.0001) // o Tile number: 000002
(PID.TID 0000.0001) //         No. X exchanges =              0
(PID.TID 0000.0001) //            Max. X spins =              0
(PID.TID 0000.0001) //            Min. X spins =     1000000000
(PID.TID 0000.0001) //          Total. X spins =              0
(PID.TID 0000.0001) //            Avg. X spins =       0.00E+00
(PID.TID 0000.0001) //         No. Y exchanges =              0
(PID.TID 0000.0001) //            Max. Y spins =              0
(PID.TID 0000.0001) //            Min. Y spins =     1000000000
(PID.TID 0000.0001) //          Total. Y spins =              0
(PID.TID 0000.0001) //            Avg. Y spins =       0.00E+00
(PID.TID 0000.0001) // o Tile number: 000003
(PID.TID 0000.0001) //         No. X exchanges =              0
(PID.TID 0000.0001) //            Max. X spins =              0
(PID.TID 0000.0001) //            Min. X spins =     1000000000
(PID.TID 0000.0001) //          Total. X spins =              0
(PID.TID 0000.0001) //            Avg. X spins =       0.00E+00
(PID.TID 0000.0001) //         No. Y exchanges =              0
(PID.TID 0000.0001) //            Max. Y spins =              0
(PID.TID 0000.0001) //            Min. Y spins =     1000000000
(PID.TID 0000.0001) //          Total. Y spins =              0
(PID.TID 0000.0001) //            Avg. Y spins =       0.00E+00
(PID.TID 0000.0001) // o Tile number: 000004
(PID.TID 0000.0001) //         No. X exchanges =              0
(PID.TID 0000.0001) //            Max. X spins =              0
(PID.TID 0000.0001) //            Min. X spins =     1000000000
(PID.TID 0000.0001) //          Total. X spins =              0
(PID.TID 0000.0001) //            Avg. X spins =       0.00E+00
(PID.TID 0000.0001) //         No. Y exchanges =              0
(PID.TID 0000.0001) //            Max. Y spins =              0
(PID.TID 0000.0001) //            Min. Y spins =     1000000000
(PID.TID 0000.0001) //          Total. Y spins =              0
(PID.TID 0000.0001) //            Avg. Y spins =       0.00E+00
(PID.TID 0000.0001) // o Tile number: 000005
(PID.TID 0000.0001) //         No. X exchanges =              0
(PID.TID 0000.0001) //            Max. X spins =              0
(PID.TID 0000.0001) //            Min. X spins =     1000000000
(PID.TID 0000.0001) //          Total. X spins =              0
(PID.TID 0000.0001) //            Avg. X spins =       0.00E+00
(PID.TID 0000.0001) //         No. Y exchanges =              0
(PID.TID 0000.0001) //            Max. Y spins =              0
(PID.TID 0000.0001) //            Min. Y spins =     1000000000
(PID.TID 0000.0001) //          Total. Y spins =              0
(PID.TID 0000.0001) //            Avg. Y spins =       0.00E+00
(PID.TID 0000.0001) // o Tile number: 000006
(PID.TID 0000.0001) //         No. X exchanges =              0
(PID.TID 0000.0001) //            Max. X spins =              0
(PID.TID 0000.0001) //            Min. X spins =     1000000000
(PID.TID 0000.0001) //          Total. X spins =              0
(PID.TID 0000.0001) //            Avg. X spins =       0.00E+00
(PID.TID 0000.0001) //         No. Y exchanges =              0
(PID.TID 0000.0001) //            Max. Y spins =              0
(PID.TID 0000.0001) //            Min. Y spins =     1000000000
(PID.TID 0000.0001) //          Total. Y spins =              0
(PID.TID 0000.0001) //            Avg. Y spins =       0.00E+00
(PID.TID 0000.0001) // o Tile number: 000007
(PID.TID 0000.0001) //         No. X exchanges =              0
(PID.TID 0000.0001) //            Max. X spins =              0
(PID.TID 0000.0001) //            Min. X spins =     1000000000
(PID.TID 0000.0001) //          Total. X spins =              0
(PID.TID 0000.0001) //            Avg. X spins =       0.00E+00
(PID.TID 0000.0001) //         No. Y exchanges =              0
(PID.TID 0000.0001) //            Max. Y spins =              0
(PID.TID 0000.0001) //            Min. Y spins =     1000000000
(PID.TID 0000.0001) //          Total. Y spins =              0
(PID.TID 0000.0001) //            Avg. Y spins =       0.00E+00
(PID.TID 0000.0001) // o Tile number: 000008
(PID.TID 0000.0001) //         No. X exchanges =              0
(PID.TID 0000.0001) //            Max. X spins =              0
(PID.TID 0000.0001) //            Min. X spins =     1000000000
(PID.TID 0000.0001) //          Total. X spins =              0
(PID.TID 0000.0001) //            Avg. X spins =       0.00E+00
(PID.TID 0000.0001) //         No. Y exchanges =              0
(PID.TID 0000.0001) //            Max. Y spins =              0
(PID.TID 0000.0001) //            Min. Y spins =     1000000000
(PID.TID 0000.0001) //          Total. Y spins =              0
(PID.TID 0000.0001) //            Avg. Y spins =       0.00E+00
(PID.TID 0000.0001) // o Tile number: 000009
(PID.TID 0000.0001) //         No. X exchanges =              0
(PID.TID 0000.0001) //            Max. X spins =              0
(PID.TID 0000.0001) //            Min. X spins =     1000000000
(PID.TID 0000.0001) //          Total. X spins =              0
(PID.TID 0000.0001) //            Avg. X spins =       0.00E+00
(PID.TID 0000.0001) //         No. Y exchanges =              0
(PID.TID 0000.0001) //            Max. Y spins =              0
(PID.TID 0000.0001) //            Min. Y spins =     1000000000
(PID.TID 0000.0001) //          Total. Y spins =              0
(PID.TID 0000.0001) //            Avg. Y spins =       0.00E+00
(PID.TID 0000.0001) // o Tile number: 000010
(PID.TID 0000.0001) //         No. X exchanges =              0
(PID.TID 0000.0001) //            Max. X spins =              0
(PID.TID 0000.0001) //            Min. X spins =     1000000000
(PID.TID 0000.0001) //          Total. X spins =              0
(PID.TID 0000.0001) //            Avg. X spins =       0.00E+00
(PID.TID 0000.0001) //         No. Y exchanges =              0
(PID.TID 0000.0001) //            Max. Y spins =              0
(PID.TID 0000.0001) //            Min. Y spins =     1000000000
(PID.TID 0000.0001) //          Total. Y spins =              0
(PID.TID 0000.0001) //            Avg. Y spins =       0.00E+00
(PID.TID 0000.0001) // o Tile number: 000011
(PID.TID 0000.0001) //         No. X exchanges =              0
(PID.TID 0000.0001) //            Max. X spins =              0
(PID.TID 0000.0001) //            Min. X spins =     1000000000
(PID.TID 0000.0001) //          Total. X spins =              0
(PID.TID 0000.0001) //            Avg. X spins =       0.00E+00
(PID.TID 0000.0001) //         No. Y exchanges =              0
(PID.TID 0000.0001) //            Max. Y spins =              0
(PID.TID 0000.0001) //            Min. Y spins =     1000000000
(PID.TID 0000.0001) //          Total. Y spins =              0
(PID.TID 0000.0001) //            Avg. Y spins =       0.00E+00
(PID.TID 0000.0001) // o Tile number: 000012
(PID.TID 0000.0001) //         No. X exchanges =              0
(PID.TID 0000.0001) //            Max. X spins =              0
(PID.TID 0000.0001) //            Min. X spins =     1000000000
(PID.TID 0000.0001) //          Total. X spins =              0
(PID.TID 0000.0001) //            Avg. X spins =       0.00E+00
(PID.TID 0000.0001) //         No. Y exchanges =              0
(PID.TID 0000.0001) //            Max. Y spins =              0
(PID.TID 0000.0001) //            Min. Y spins =     1000000000
(PID.TID 0000.0001) //          Total. Y spins =              0
(PID.TID 0000.0001) //            Avg. Y spins =       0.00E+00
(PID.TID 0000.0001) // o Tile number: 000013
(PID.TID 0000.0001) //         No. X exchanges =              0
(PID.TID 0000.0001) //            Max. X spins =              0
(PID.TID 0000.0001) //            Min. X spins =     1000000000
(PID.TID 0000.0001) //          Total. X spins =              0
(PID.TID 0000.0001) //            Avg. X spins =       0.00E+00
(PID.TID 0000.0001) //         No. Y exchanges =              0
(PID.TID 0000.0001) //            Max. Y spins =              0
(PID.TID 0000.0001) //            Min. Y spins =     1000000000
(PID.TID 0000.0001) //          Total. Y spins =              0
(PID.TID 0000.0001) //            Avg. Y spins =       0.00E+00
(PID.TID 0000.0001) // o Tile number: 000014
(PID.TID 0000.0001) //         No. X exchanges =              0
(PID.TID 0000.0001) //            Max. X spins =              0
(PID.TID 0000.0001) //            Min. X spins =     1000000000
(PID.TID 0000.0001) //          Total. X spins =              0
(PID.TID 0000.0001) //            Avg. X spins =       0.00E+00
(PID.TID 0000.0001) //         No. Y exchanges =              0
(PID.TID 0000.0001) //            Max. Y spins =              0
(PID.TID 0000.0001) //            Min. Y spins =     1000000000
(PID.TID 0000.0001) //          Total. Y spins =              0
(PID.TID 0000.0001) //            Avg. Y spins =       0.00E+00
(PID.TID 0000.0001) // o Tile number: 000015
(PID.TID 0000.0001) //         No. X exchanges =              0
(PID.TID 0000.0001) //            Max. X spins =              0
(PID.TID 0000.0001) //            Min. X spins =     1000000000
(PID.TID 0000.0001) //          Total. X spins =              0
(PID.TID 0000.0001) //            Avg. X spins =       0.00E+00
(PID.TID 0000.0001) //         No. Y exchanges =              0
(PID.TID 0000.0001) //            Max. Y spins =              0
(PID.TID 0000.0001) //            Min. Y spins =     1000000000
(PID.TID 0000.0001) //          Total. Y spins =              0
(PID.TID 0000.0001) //            Avg. Y spins =       0.00E+00
(PID.TID 0000.0001) // o Tile number: 000016
(PID.TID 0000.0001) //         No. X exchanges =              0
(PID.TID 0000.0001) //            Max. X spins =              0
(PID.TID 0000.0001) //            Min. X spins =     1000000000
(PID.TID 0000.0001) //          Total. X spins =              0
(PID.TID 0000.0001) //            Avg. X spins =       0.00E+00
(PID.TID 0000.0001) //         No. Y exchanges =              0
(PID.TID 0000.0001) //            Max. Y spins =              0
(PID.TID 0000.0001) //            Min. Y spins =     1000000000
(PID.TID 0000.0001) //          Total. Y spins =              0
(PID.TID 0000.0001) //            Avg. Y spins =       0.00E+00
(PID.TID 0000.0001) // o Tile number: 000017
(PID.TID 0000.0001) //         No. X exchanges =              0
(PID.TID 0000.0001) //            Max. X spins =              0
(PID.TID 0000.0001) //            Min. X spins =     1000000000
(PID.TID 0000.0001) //          Total. X spins =              0
(PID.TID 0000.0001) //            Avg. X spins =       0.00E+00
(PID.TID 0000.0001) //         No. Y exchanges =              0
(PID.TID 0000.0001) //            Max. Y spins =              0
(PID.TID 0000.0001) //            Min. Y spins =     1000000000
(PID.TID 0000.0001) //          Total. Y spins =              0
(PID.TID 0000.0001) //            Avg. Y spins =       0.00E+00
(PID.TID 0000.0001) // o Tile number: 000018
(PID.TID 0000.0001) //         No. X exchanges =              0
(PID.TID 0000.0001) //            Max. X spins =              0
(PID.TID 0000.0001) //            Min. X spins =     1000000000
(PID.TID 0000.0001) //          Total. X spins =              0
(PID.TID 0000.0001) //            Avg. X spins =       0.00E+00
(PID.TID 0000.0001) //         No. Y exchanges =              0
(PID.TID 0000.0001) //            Max. Y spins =              0
(PID.TID 0000.0001) //            Min. Y spins =     1000000000
(PID.TID 0000.0001) //          Total. Y spins =              0
(PID.TID 0000.0001) //            Avg. Y spins =       0.00E+00
(PID.TID 0000.0001) // o Tile number: 000019
(PID.TID 0000.0001) //         No. X exchanges =              0
(PID.TID 0000.0001) //            Max. X spins =              0
(PID.TID 0000.0001) //            Min. X spins =     1000000000
(PID.TID 0000.0001) //          Total. X spins =              0
(PID.TID 0000.0001) //            Avg. X spins =       0.00E+00
(PID.TID 0000.0001) //         No. Y exchanges =              0
(PID.TID 0000.0001) //            Max. Y spins =              0
(PID.TID 0000.0001) //            Min. Y spins =     1000000000
(PID.TID 0000.0001) //          Total. Y spins =              0
(PID.TID 0000.0001) //            Avg. Y spins =       0.00E+00
(PID.TID 0000.0001) // o Tile number: 000020
(PID.TID 0000.0001) //         No. X exchanges =              0
(PID.TID 0000.0001) //            Max. X spins =              0
(PID.TID 0000.0001) //            Min. X spins =     1000000000
(PID.TID 0000.0001) //          Total. X spins =              0
(PID.TID 0000.0001) //            Avg. X spins =       0.00E+00
(PID.TID 0000.0001) //         No. Y exchanges =              0
(PID.TID 0000.0001) //            Max. Y spins =              0
(PID.TID 0000.0001) //            Min. Y spins =     1000000000
(PID.TID 0000.0001) //          Total. Y spins =              0
(PID.TID 0000.0001) //            Avg. Y spins =       0.00E+00
(PID.TID 0000.0001) // o Tile number: 000021
(PID.TID 0000.0001) //         No. X exchanges =              0
(PID.TID 0000.0001) //            Max. X spins =              0
(PID.TID 0000.0001) //            Min. X spins =     1000000000
(PID.TID 0000.0001) //          Total. X spins =              0
(PID.TID 0000.0001) //            Avg. X spins =       0.00E+00
(PID.TID 0000.0001) //         No. Y exchanges =              0
(PID.TID 0000.0001) //            Max. Y spins =              0
(PID.TID 0000.0001) //            Min. Y spins =     1000000000
(PID.TID 0000.0001) //          Total. Y spins =              0
(PID.TID 0000.0001) //            Avg. Y spins =       0.00E+00
(PID.TID 0000.0001) // o Tile number: 000022
(PID.TID 0000.0001) //         No. X exchanges =              0
(PID.TID 0000.0001) //            Max. X spins =              0
(PID.TID 0000.0001) //            Min. X spins =     1000000000
(PID.TID 0000.0001) //          Total. X spins =              0
(PID.TID 0000.0001) //            Avg. X spins =       0.00E+00
(PID.TID 0000.0001) //         No. Y exchanges =              0
(PID.TID 0000.0001) //            Max. Y spins =              0
(PID.TID 0000.0001) //            Min. Y spins =     1000000000
(PID.TID 0000.0001) //          Total. Y spins =              0
(PID.TID 0000.0001) //            Avg. Y spins =       0.00E+00
(PID.TID 0000.0001) // o Tile number: 000023
(PID.TID 0000.0001) //         No. X exchanges =              0
(PID.TID 0000.0001) //            Max. X spins =              0
(PID.TID 0000.0001) //            Min. X spins =     1000000000
(PID.TID 0000.0001) //          Total. X spins =              0
(PID.TID 0000.0001) //            Avg. X spins =       0.00E+00
(PID.TID 0000.0001) //         No. Y exchanges =              0
(PID.TID 0000.0001) //            Max. Y spins =              0
(PID.TID 0000.0001) //            Min. Y spins =     1000000000
(PID.TID 0000.0001) //          Total. Y spins =              0
(PID.TID 0000.0001) //            Avg. Y spins =       0.00E+00
(PID.TID 0000.0001) // o Tile number: 000024
(PID.TID 0000.0001) //         No. X exchanges =              0
(PID.TID 0000.0001) //            Max. X spins =              0
(PID.TID 0000.0001) //            Min. X spins =     1000000000
(PID.TID 0000.0001) //          Total. X spins =              0
(PID.TID 0000.0001) //            Avg. X spins =       0.00E+00
(PID.TID 0000.0001) //         No. Y exchanges =              0
(PID.TID 0000.0001) //            Max. Y spins =              0
(PID.TID 0000.0001) //            Min. Y spins =     1000000000
(PID.TID 0000.0001) //          Total. Y spins =              0
(PID.TID 0000.0001) //            Avg. Y spins =       0.00E+00
(PID.TID 0000.0001) // o Tile number: 000025
(PID.TID 0000.0001) //         No. X exchanges =              0
(PID.TID 0000.0001) //            Max. X spins =              0
(PID.TID 0000.0001) //            Min. X spins =     1000000000
(PID.TID 0000.0001) //          Total. X spins =              0
(PID.TID 0000.0001) //            Avg. X spins =       0.00E+00
(PID.TID 0000.0001) //         No. Y exchanges =              0
(PID.TID 0000.0001) //            Max. Y spins =              0
(PID.TID 0000.0001) //            Min. Y spins =     1000000000
(PID.TID 0000.0001) //          Total. Y spins =              0
(PID.TID 0000.0001) //            Avg. Y spins =       0.00E+00
(PID.TID 0000.0001) // o Tile number: 000026
(PID.TID 0000.0001) //         No. X exchanges =              0
(PID.TID 0000.0001) //            Max. X spins =              0
(PID.TID 0000.0001) //            Min. X spins =     1000000000
(PID.TID 0000.0001) //          Total. X spins =              0
(PID.TID 0000.0001) //            Avg. X spins =       0.00E+00
(PID.TID 0000.0001) //         No. Y exchanges =              0
(PID.TID 0000.0001) //            Max. Y spins =              0
(PID.TID 0000.0001) //            Min. Y spins =     1000000000
(PID.TID 0000.0001) //          Total. Y spins =              0
(PID.TID 0000.0001) //            Avg. Y spins =       0.00E+00
(PID.TID 0000.0001) // o Tile number: 000027
(PID.TID 0000.0001) //         No. X exchanges =              0
(PID.TID 0000.0001) //            Max. X spins =              0
(PID.TID 0000.0001) //            Min. X spins =     1000000000
(PID.TID 0000.0001) //          Total. X spins =              0
(PID.TID 0000.0001) //            Avg. X spins =       0.00E+00
(PID.TID 0000.0001) //         No. Y exchanges =              0
(PID.TID 0000.0001) //            Max. Y spins =              0
(PID.TID 0000.0001) //            Min. Y spins =     1000000000
(PID.TID 0000.0001) //          Total. Y spins =              0
(PID.TID 0000.0001) //            Avg. Y spins =       0.00E+00
(PID.TID 0000.0001) // o Tile number: 000028
(PID.TID 0000.0001) //         No. X exchanges =              0
(PID.TID 0000.0001) //            Max. X spins =              0
(PID.TID 0000.0001) //            Min. X spins =     1000000000
(PID.TID 0000.0001) //          Total. X spins =              0
(PID.TID 0000.0001) //            Avg. X spins =       0.00E+00
(PID.TID 0000.0001) //         No. Y exchanges =              0
(PID.TID 0000.0001) //            Max. Y spins =              0
(PID.TID 0000.0001) //            Min. Y spins =     1000000000
(PID.TID 0000.0001) //          Total. Y spins =              0
(PID.TID 0000.0001) //            Avg. Y spins =       0.00E+00
(PID.TID 0000.0001) // o Tile number: 000029
(PID.TID 0000.0001) //         No. X exchanges =              0
(PID.TID 0000.0001) //            Max. X spins =              0
(PID.TID 0000.0001) //            Min. X spins =     1000000000
(PID.TID 0000.0001) //          Total. X spins =              0
(PID.TID 0000.0001) //            Avg. X spins =       0.00E+00
(PID.TID 0000.0001) //         No. Y exchanges =              0
(PID.TID 0000.0001) //            Max. Y spins =              0
(PID.TID 0000.0001) //            Min. Y spins =     1000000000
(PID.TID 0000.0001) //          Total. Y spins =              0
(PID.TID 0000.0001) //            Avg. Y spins =       0.00E+00
(PID.TID 0000.0001) // o Tile number: 000030
(PID.TID 0000.0001) //         No. X exchanges =              0
(PID.TID 0000.0001) //            Max. X spins =              0
(PID.TID 0000.0001) //            Min. X spins =     1000000000
(PID.TID 0000.0001) //          Total. X spins =              0
(PID.TID 0000.0001) //            Avg. X spins =       0.00E+00
(PID.TID 0000.0001) //         No. Y exchanges =              0
(PID.TID 0000.0001) //            Max. Y spins =              0
(PID.TID 0000.0001) //            Min. Y spins =     1000000000
(PID.TID 0000.0001) //          Total. Y spins =              0
(PID.TID 0000.0001) //            Avg. Y spins =       0.00E+00
(PID.TID 0000.0001) // o Tile number: 000031
(PID.TID 0000.0001) //         No. X exchanges =              0
(PID.TID 0000.0001) //            Max. X spins =              0
(PID.TID 0000.0001) //            Min. X spins =     1000000000
(PID.TID 0000.0001) //          Total. X spins =              0
(PID.TID 0000.0001) //            Avg. X spins =       0.00E+00
(PID.TID 0000.0001) //         No. Y exchanges =              0
(PID.TID 0000.0001) //            Max. Y spins =              0
(PID.TID 0000.0001) //            Min. Y spins =     1000000000
(PID.TID 0000.0001) //          Total. Y spins =              0
(PID.TID 0000.0001) //            Avg. Y spins =       0.00E+00
(PID.TID 0000.0001) // o Tile number: 000032
(PID.TID 0000.0001) //         No. X exchanges =              0
(PID.TID 0000.0001) //            Max. X spins =              0
(PID.TID 0000.0001) //            Min. X spins =     1000000000
(PID.TID 0000.0001) //          Total. X spins =              0
(PID.TID 0000.0001) //            Avg. X spins =       0.00E+00
(PID.TID 0000.0001) //         No. Y exchanges =              0
(PID.TID 0000.0001) //            Max. Y spins =              0
(PID.TID 0000.0001) //            Min. Y spins =     1000000000
(PID.TID 0000.0001) //          Total. Y spins =              0
(PID.TID 0000.0001) //            Avg. Y spins =       0.00E+00
(PID.TID 0000.0001) // o Tile number: 000033
(PID.TID 0000.0001) //         No. X exchanges =              0
(PID.TID 0000.0001) //            Max. X spins =              0
(PID.TID 0000.0001) //            Min. X spins =     1000000000
(PID.TID 0000.0001) //          Total. X spins =              0
(PID.TID 0000.0001) //            Avg. X spins =       0.00E+00
(PID.TID 0000.0001) //         No. Y exchanges =              0
(PID.TID 0000.0001) //            Max. Y spins =              0
(PID.TID 0000.0001) //            Min. Y spins =     1000000000
(PID.TID 0000.0001) //          Total. Y spins =              0
(PID.TID 0000.0001) //            Avg. Y spins =       0.00E+00
(PID.TID 0000.0001) // o Tile number: 000034
(PID.TID 0000.0001) //         No. X exchanges =              0
(PID.TID 0000.0001) //            Max. X spins =              0
(PID.TID 0000.0001) //            Min. X spins =     1000000000
(PID.TID 0000.0001) //          Total. X spins =              0
(PID.TID 0000.0001) //            Avg. X spins =       0.00E+00
(PID.TID 0000.0001) //         No. Y exchanges =              0
(PID.TID 0000.0001) //            Max. Y spins =              0
(PID.TID 0000.0001) //            Min. Y spins =     1000000000
(PID.TID 0000.0001) //          Total. Y spins =              0
(PID.TID 0000.0001) //            Avg. Y spins =       0.00E+00
(PID.TID 0000.0001) // o Tile number: 000035
(PID.TID 0000.0001) //         No. X exchanges =              0
(PID.TID 0000.0001) //            Max. X spins =              0
(PID.TID 0000.0001) //            Min. X spins =     1000000000
(PID.TID 0000.0001) //          Total. X spins =              0
(PID.TID 0000.0001) //            Avg. X spins =       0.00E+00
(PID.TID 0000.0001) //         No. Y exchanges =              0
(PID.TID 0000.0001) //            Max. Y spins =              0
(PID.TID 0000.0001) //            Min. Y spins =     1000000000
(PID.TID 0000.0001) //          Total. Y spins =              0
(PID.TID 0000.0001) //            Avg. Y spins =       0.00E+00
(PID.TID 0000.0001) // o Tile number: 000036
(PID.TID 0000.0001) //         No. X exchanges =              0
(PID.TID 0000.0001) //            Max. X spins =              0
(PID.TID 0000.0001) //            Min. X spins =     1000000000
(PID.TID 0000.0001) //          Total. X spins =              0
(PID.TID 0000.0001) //            Avg. X spins =       0.00E+00
(PID.TID 0000.0001) //         No. Y exchanges =              0
(PID.TID 0000.0001) //            Max. Y spins =              0
(PID.TID 0000.0001) //            Min. Y spins =     1000000000
(PID.TID 0000.0001) //          Total. Y spins =              0
(PID.TID 0000.0001) //            Avg. Y spins =       0.00E+00
(PID.TID 0000.0001) // o Tile number: 000037
(PID.TID 0000.0001) //         No. X exchanges =              0
(PID.TID 0000.0001) //            Max. X spins =              0
(PID.TID 0000.0001) //            Min. X spins =     1000000000
(PID.TID 0000.0001) //          Total. X spins =              0
(PID.TID 0000.0001) //            Avg. X spins =       0.00E+00
(PID.TID 0000.0001) //         No. Y exchanges =              0
(PID.TID 0000.0001) //            Max. Y spins =              0
(PID.TID 0000.0001) //            Min. Y spins =     1000000000
(PID.TID 0000.0001) //          Total. Y spins =              0
(PID.TID 0000.0001) //            Avg. Y spins =       0.00E+00
(PID.TID 0000.0001) // o Tile number: 000038
(PID.TID 0000.0001) //         No. X exchanges =              0
(PID.TID 0000.0001) //            Max. X spins =              0
(PID.TID 0000.0001) //            Min. X spins =     1000000000
(PID.TID 0000.0001) //          Total. X spins =              0
(PID.TID 0000.0001) //            Avg. X spins =       0.00E+00
(PID.TID 0000.0001) //         No. Y exchanges =              0
(PID.TID 0000.0001) //            Max. Y spins =              0
(PID.TID 0000.0001) //            Min. Y spins =     1000000000
(PID.TID 0000.0001) //          Total. Y spins =              0
(PID.TID 0000.0001) //            Avg. Y spins =       0.00E+00
(PID.TID 0000.0001) // o Tile number: 000039
(PID.TID 0000.0001) //         No. X exchanges =              0
(PID.TID 0000.0001) //            Max. X spins =              0
(PID.TID 0000.0001) //            Min. X spins =     1000000000
(PID.TID 0000.0001) //          Total. X spins =              0
(PID.TID 0000.0001) //            Avg. X spins =       0.00E+00
(PID.TID 0000.0001) //         No. Y exchanges =              0
(PID.TID 0000.0001) //            Max. Y spins =              0
(PID.TID 0000.0001) //            Min. Y spins =     1000000000
(PID.TID 0000.0001) //          Total. Y spins =              0
(PID.TID 0000.0001) //            Avg. Y spins =       0.00E+00
(PID.TID 0000.0001) // o Tile number: 000040
(PID.TID 0000.0001) //         No. X exchanges =              0
(PID.TID 0000.0001) //            Max. X spins =              0
(PID.TID 0000.0001) //            Min. X spins =     1000000000
(PID.TID 0000.0001) //          Total. X spins =              0
(PID.TID 0000.0001) //            Avg. X spins =       0.00E+00
(PID.TID 0000.0001) //         No. Y exchanges =              0
(PID.TID 0000.0001) //            Max. Y spins =              0
(PID.TID 0000.0001) //            Min. Y spins =     1000000000
(PID.TID 0000.0001) //          Total. Y spins =              0
(PID.TID 0000.0001) //            Avg. Y spins =       0.00E+00
(PID.TID 0000.0001) // o Tile number: 000041
(PID.TID 0000.0001) //         No. X exchanges =              0
(PID.TID 0000.0001) //            Max. X spins =              0
(PID.TID 0000.0001) //            Min. X spins =     1000000000
(PID.TID 0000.0001) //          Total. X spins =              0
(PID.TID 0000.0001) //            Avg. X spins =       0.00E+00
(PID.TID 0000.0001) //         No. Y exchanges =              0
(PID.TID 0000.0001) //            Max. Y spins =              0
(PID.TID 0000.0001) //            Min. Y spins =     1000000000
(PID.TID 0000.0001) //          Total. Y spins =              0
(PID.TID 0000.0001) //            Avg. Y spins =       0.00E+00
(PID.TID 0000.0001) // o Tile number: 000042
(PID.TID 0000.0001) //         No. X exchanges =              0
(PID.TID 0000.0001) //            Max. X spins =              0
(PID.TID 0000.0001) //            Min. X spins =     1000000000
(PID.TID 0000.0001) //          Total. X spins =              0
(PID.TID 0000.0001) //            Avg. X spins =       0.00E+00
(PID.TID 0000.0001) //         No. Y exchanges =              0
(PID.TID 0000.0001) //            Max. Y spins =              0
(PID.TID 0000.0001) //            Min. Y spins =     1000000000
(PID.TID 0000.0001) //          Total. Y spins =              0
(PID.TID 0000.0001) //            Avg. Y spins =       0.00E+00
(PID.TID 0000.0001) // o Tile number: 000043
(PID.TID 0000.0001) //         No. X exchanges =              0
(PID.TID 0000.0001) //            Max. X spins =              0
(PID.TID 0000.0001) //            Min. X spins =     1000000000
(PID.TID 0000.0001) //          Total. X spins =              0
(PID.TID 0000.0001) //            Avg. X spins =       0.00E+00
(PID.TID 0000.0001) //         No. Y exchanges =              0
(PID.TID 0000.0001) //            Max. Y spins =              0
(PID.TID 0000.0001) //            Min. Y spins =     1000000000
(PID.TID 0000.0001) //          Total. Y spins =              0
(PID.TID 0000.0001) //            Avg. Y spins =       0.00E+00
(PID.TID 0000.0001) // o Tile number: 000044
(PID.TID 0000.0001) //         No. X exchanges =              0
(PID.TID 0000.0001) //            Max. X spins =              0
(PID.TID 0000.0001) //            Min. X spins =     1000000000
(PID.TID 0000.0001) //          Total. X spins =              0
(PID.TID 0000.0001) //            Avg. X spins =       0.00E+00
(PID.TID 0000.0001) //         No. Y exchanges =              0
(PID.TID 0000.0001) //            Max. Y spins =              0
(PID.TID 0000.0001) //            Min. Y spins =     1000000000
(PID.TID 0000.0001) //          Total. Y spins =              0
(PID.TID 0000.0001) //            Avg. Y spins =       0.00E+00
(PID.TID 0000.0001) // o Tile number: 000045
(PID.TID 0000.0001) //         No. X exchanges =              0
(PID.TID 0000.0001) //            Max. X spins =              0
(PID.TID 0000.0001) //            Min. X spins =     1000000000
(PID.TID 0000.0001) //          Total. X spins =              0
(PID.TID 0000.0001) //            Avg. X spins =       0.00E+00
(PID.TID 0000.0001) //         No. Y exchanges =              0
(PID.TID 0000.0001) //            Max. Y spins =              0
(PID.TID 0000.0001) //            Min. Y spins =     1000000000
(PID.TID 0000.0001) //          Total. Y spins =              0
(PID.TID 0000.0001) //            Avg. Y spins =       0.00E+00
(PID.TID 0000.0001) // o Tile number: 000046
(PID.TID 0000.0001) //         No. X exchanges =              0
(PID.TID 0000.0001) //            Max. X spins =              0
(PID.TID 0000.0001) //            Min. X spins =     1000000000
(PID.TID 0000.0001) //          Total. X spins =              0
(PID.TID 0000.0001) //            Avg. X spins =       0.00E+00
(PID.TID 0000.0001) //         No. Y exchanges =              0
(PID.TID 0000.0001) //            Max. Y spins =              0
(PID.TID 0000.0001) //            Min. Y spins =     1000000000
(PID.TID 0000.0001) //          Total. Y spins =              0
(PID.TID 0000.0001) //            Avg. Y spins =       0.00E+00
(PID.TID 0000.0001) // o Tile number: 000047
(PID.TID 0000.0001) //         No. X exchanges =              0
(PID.TID 0000.0001) //            Max. X spins =              0
(PID.TID 0000.0001) //            Min. X spins =     1000000000
(PID.TID 0000.0001) //          Total. X spins =              0
(PID.TID 0000.0001) //            Avg. X spins =       0.00E+00
(PID.TID 0000.0001) //         No. Y exchanges =              0
(PID.TID 0000.0001) //            Max. Y spins =              0
(PID.TID 0000.0001) //            Min. Y spins =     1000000000
(PID.TID 0000.0001) //          Total. Y spins =              0
(PID.TID 0000.0001) //            Avg. Y spins =       0.00E+00
(PID.TID 0000.0001) // o Tile number: 000048
(PID.TID 0000.0001) //         No. X exchanges =              0
(PID.TID 0000.0001) //            Max. X spins =              0
(PID.TID 0000.0001) //            Min. X spins =     1000000000
(PID.TID 0000.0001) //          Total. X spins =              0
(PID.TID 0000.0001) //            Avg. X spins =       0.00E+00
(PID.TID 0000.0001) //         No. Y exchanges =              0
(PID.TID 0000.0001) //            Max. Y spins =              0
(PID.TID 0000.0001) //            Min. Y spins =     1000000000
(PID.TID 0000.0001) //          Total. Y spins =              0
(PID.TID 0000.0001) //            Avg. Y spins =       0.00E+00
(PID.TID 0000.0001) // o Thread number: 000001
(PID.TID 0000.0001) //            No. barriers =          15616
(PID.TID 0000.0001) //      Max. barrier spins =              1
(PID.TID 0000.0001) //      Min. barrier spins =              1
(PID.TID 0000.0001) //     Total barrier spins =          15616
(PID.TID 0000.0001) //      Avg. barrier spins =       1.00E+00
