(PID.TID 0000.0001) 
(PID.TID 0000.0001) // ======================================================
(PID.TID 0000.0001) //                      MITgcm UV
(PID.TID 0000.0001) //                      =========
(PID.TID 0000.0001) // ======================================================
(PID.TID 0000.0001) // execution environment starting up...
(PID.TID 0000.0001) 
(PID.TID 0000.0001) // MITgcmUV version:  checkpoint61n
(PID.TID 0000.0001) // Build user:        jmc
(PID.TID 0000.0001) // Build host:        faulks
(PID.TID 0000.0001) // Build date:        Sun May 17 19:04:44 EDT 2009
(PID.TID 0000.0001) 
(PID.TID 0000.0001) // =======================================================
(PID.TID 0000.0001) // Execution Environment parameter file "eedata"
(PID.TID 0000.0001) // =======================================================
(PID.TID 0000.0001) ># Example "eedata" file
(PID.TID 0000.0001) ># Lines beginning "#" are comments
(PID.TID 0000.0001) ># nTx - No. threads per process in X
(PID.TID 0000.0001) ># nTy - No. threads per process in Y
(PID.TID 0000.0001) > &EEPARMS
(PID.TID 0000.0001) > useCubedSphereExchange=.TRUE.,
(PID.TID 0000.0001) ># Activate one line below to support 2, 3 or 6 way multi-threading
(PID.TID 0000.0001) >#nTx=2,
(PID.TID 0000.0001) >#nTx=3,
(PID.TID 0000.0001) >#nTx=6,
(PID.TID 0000.0001) > &
(PID.TID 0000.0001) ># Note: Some systems use & as the
(PID.TID 0000.0001) ># namelist terminator. Other systems
(PID.TID 0000.0001) ># use a / character (as shown here).
(PID.TID 0000.0001) 
(PID.TID 0000.0001) // =======================================================
(PID.TID 0000.0001) // Computational Grid Specification ( see files "SIZE.h" )
(PID.TID 0000.0001) //                                  ( and "eedata"       )
(PID.TID 0000.0001) // =======================================================
(PID.TID 0000.0001)      nPx =    1 ; /* No. processes in X */
(PID.TID 0000.0001)      nPy =    1 ; /* No. processes in Y */
(PID.TID 0000.0001)      nSx =   12 ; /* No. tiles in X per process */
(PID.TID 0000.0001)      nSy =    1 ; /* No. tiles in Y per process */
(PID.TID 0000.0001)      sNx =   16 ; /* Tile size in X */
(PID.TID 0000.0001)      sNy =   32 ; /* Tile size in Y */
(PID.TID 0000.0001)      OLx =    2 ; /* Tile overlap distance in X */
(PID.TID 0000.0001)      OLy =    2 ; /* Tile overlap distance in Y */
(PID.TID 0000.0001)      nTx =    1 ; /* No. threads in X per process */
(PID.TID 0000.0001)      nTy =    1 ; /* No. threads in Y per process */
(PID.TID 0000.0001)       Nr =    5 ; /* No. levels in the vertical   */
(PID.TID 0000.0001)       Nx =  192 ; /* Total domain size in X ( = nPx*nSx*sNx ) */
(PID.TID 0000.0001)       Ny =   32 ; /* Total domain size in Y ( = nPy*nSy*sNy ) */
(PID.TID 0000.0001)   nTiles =   12 ; /* Total no. tiles per process ( = nSx*nSy ) */
(PID.TID 0000.0001)   nProcs =    1 ; /* Total no. processes ( = nPx*nPy ) */
(PID.TID 0000.0001) nThreads =    1 ; /* Total no. threads per process ( = nTx*nTy ) */
(PID.TID 0000.0001) usingMPI =    F ; /* Flag used to control whether MPI is in use */
(PID.TID 0000.0001)                   /*  note: To execute a program with MPI calls */
(PID.TID 0000.0001)                   /*  it must be launched appropriately e.g     */
(PID.TID 0000.0001)                   /*  "mpirun -np 64 ......"                    */
(PID.TID 0000.0001) useCoupler=    F ;/* Flag used to control communications with   */
(PID.TID 0000.0001)                   /*  other model components, through a coupler */
(PID.TID 0000.0001) printMapIncludesZeros=    F ; /* print zeros in Std.Output maps */
(PID.TID 0000.0001) maxLengthPrt1D=   65 /* maxLength of 1D array printed to StdOut */
(PID.TID 0000.0001) 
(PID.TID 0000.0001) // ======================================================
(PID.TID 0000.0001) // Mapping of tiles to threads
(PID.TID 0000.0001) // ======================================================
(PID.TID 0000.0001) // -o- Thread   1, tiles (   1:  12,   1:   1)
(PID.TID 0000.0001) 
(PID.TID 0000.0001) W2_READPARMS: file data.exch2 not found
(PID.TID 0000.0001) => use W2_EXCH2 default: regular 6-facets Cube
(PID.TID 0000.0001) ===== Start setting W2 TOPOLOGY:
(PID.TID 0000.0001)  write to log-file: w2_tile_topology.0000.log
(PID.TID 0000.0001) =====       setting W2 TOPOLOGY: Done
(PID.TID 0000.0001) 
(PID.TID 0000.0001) // =======================================================
(PID.TID 0000.0001) // Model parameter file "data"
(PID.TID 0000.0001) // =======================================================
(PID.TID 0000.0001) ># ====================
(PID.TID 0000.0001) ># | Model parameters |
(PID.TID 0000.0001) ># ====================
(PID.TID 0000.0001) >#
(PID.TID 0000.0001) ># Continuous equation parameters
(PID.TID 0000.0001) > &PARM01
(PID.TID 0000.0001) > tRef=281.089, 289.321, 307.191, 331.377, 432.413,
(PID.TID 0000.0001) > sRef=5*0.,
(PID.TID 0000.0001) > no_slip_sides=.FALSE.,
(PID.TID 0000.0001) > no_slip_bottom=.FALSE.,
(PID.TID 0000.0001) > buoyancyRelation='ATMOSPHERIC',
(PID.TID 0000.0001) > eosType='IDEALGAS',
(PID.TID 0000.0001) > rhoConst=1.0,
(PID.TID 0000.0001) > implicitFreeSurface=.TRUE.,
(PID.TID 0000.0001) > hFacMin=1.0,
(PID.TID 0000.0001) > vectorInvariantMomentum=.TRUE.,
(PID.TID 0000.0001) > staggerTimeStep=.TRUE.,
(PID.TID 0000.0001) > readBinaryPrec=64,
(PID.TID 0000.0001) > writeBinaryPrec=64,
(PID.TID 0000.0001) > &
(PID.TID 0000.0001) >
(PID.TID 0000.0001) ># Elliptic solver parameters
(PID.TID 0000.0001) > &PARM02
(PID.TID 0000.0001) > cg2dMaxIters=200,
(PID.TID 0000.0001) > cg2dTargetResidual=1.E-12,
(PID.TID 0000.0001) > &
(PID.TID 0000.0001) >
(PID.TID 0000.0001) ># Time stepping parameters
(PID.TID 0000.0001) > &PARM03
(PID.TID 0000.0001) > nIter0=0,
(PID.TID 0000.0001) > nTimeSteps=20,
(PID.TID 0000.0001) >#endTime=864000.0,
(PID.TID 0000.0001) > deltaT=600.0,
(PID.TID 0000.0001) >#abEps=0.1,
(PID.TID 0000.0001) > alph_AB=0.6,
(PID.TID 0000.0001) > beta_AB=0.,
(PID.TID 0000.0001) > cAdjFreq=0.,
(PID.TID 0000.0001) > pChkptFreq=2592000.0,
(PID.TID 0000.0001) > chkptFreq=0.0,
(PID.TID 0000.0001) > dumpFreq=21600.0,
(PID.TID 0000.0001) > monitorFreq=1.,
(PID.TID 0000.0001) > taveFreq=2592000.,
(PID.TID 0000.0001) >#tave_lastiter=1.,
(PID.TID 0000.0001) > &
(PID.TID 0000.0001) >
(PID.TID 0000.0001) ># Gridding parameters
(PID.TID 0000.0001) > &PARM04
(PID.TID 0000.0001) > usingCurvilinearGrid=.TRUE.,
(PID.TID 0000.0001) > delR=100.E2, 250.E2, 300.E2, 200.E2, 150.E2,
(PID.TID 0000.0001) > Ro_SeaLevel=1.E5,
(PID.TID 0000.0001) > &
(PID.TID 0000.0001) >
(PID.TID 0000.0001) ># Input datasets
(PID.TID 0000.0001) > &PARM05
(PID.TID 0000.0001) > &
(PID.TID 0000.0001) 
(PID.TID 0000.0001) S/R INI_PARMS ; starts to read PARM01
(PID.TID 0000.0001) S/R INI_PARMS ; read PARM01 : OK
(PID.TID 0000.0001) S/R INI_PARMS ; starts to read PARM02
(PID.TID 0000.0001) S/R INI_PARMS ; read PARM02 : OK
(PID.TID 0000.0001) S/R INI_PARMS ; starts to read PARM03
(PID.TID 0000.0001) S/R INI_PARMS ; read PARM03 : OK
(PID.TID 0000.0001) S/R INI_PARMS ; starts to read PARM04
(PID.TID 0000.0001) S/R INI_PARMS ; read PARM04 : OK
(PID.TID 0000.0001) S/R INI_PARMS ; starts to read PARM05
(PID.TID 0000.0001) S/R INI_PARMS ; read PARM05 : OK
(PID.TID 0000.0001)  PACKAGES_BOOT: opening data.pkg
(PID.TID 0000.0001)  OPEN_COPY_DATA_FILE: opening file data.pkg
(PID.TID 0000.0001) // =======================================================
(PID.TID 0000.0001) // Parameter file "data.pkg"
(PID.TID 0000.0001) // =======================================================
(PID.TID 0000.0001) ># Packages
(PID.TID 0000.0001) > &PACKAGES
(PID.TID 0000.0001) > useSHAP_FILT=.TRUE.,
(PID.TID 0000.0001) > usediagnostics=.TRUE.,
(PID.TID 0000.0001) > useMNC=.TRUE.,
(PID.TID 0000.0001) > &
(PID.TID 0000.0001) 
(PID.TID 0000.0001)  PACKAGES_BOOT: finished reading data.pkg
(PID.TID 0000.0001)  MNC_READPARMS: opening file 'data.mnc'
(PID.TID 0000.0001)  OPEN_COPY_DATA_FILE: opening file data.mnc
(PID.TID 0000.0001) // =======================================================
(PID.TID 0000.0001) // Parameter file "data.mnc"
(PID.TID 0000.0001) // =======================================================
(PID.TID 0000.0001) ># Example "data.mnc" file
(PID.TID 0000.0001) ># Lines beginning "#" are comments
(PID.TID 0000.0001) > &MNC_01
(PID.TID 0000.0001) ># mnc_echo_gvtypes=.FALSE.,
(PID.TID 0000.0001) ># mnc_use_indir=.FALSE.,
(PID.TID 0000.0001) > mnc_use_outdir=.TRUE.,
(PID.TID 0000.0001) > mnc_outdir_str='mnc_test_',
(PID.TID 0000.0001) >#mnc_outdir_date=.TRUE.,
(PID.TID 0000.0001) > monitor_mnc=.FALSE.,
(PID.TID 0000.0001) >#snapshot_mnc=.FALSE.,
(PID.TID 0000.0001) >#timeave_mnc=.FALSE.,
(PID.TID 0000.0001) > pickup_read_mnc=.FALSE.,
(PID.TID 0000.0001) > pickup_write_mnc=.FALSE.,
(PID.TID 0000.0001) > &
(PID.TID 0000.0001) ># Note: Some systems use & as the
(PID.TID 0000.0001) ># namelist terminator. Other systems
(PID.TID 0000.0001) ># use a / character (as shown here).
(PID.TID 0000.0001) 
(PID.TID 0000.0001)  MNC_READPARMS: finished reading data.mnc
(PID.TID 0000.0001)  SHAP_FILT_READPARMS: opening data.shap
(PID.TID 0000.0001)  OPEN_COPY_DATA_FILE: opening file data.shap
(PID.TID 0000.0001) // =======================================================
(PID.TID 0000.0001) // Parameter file "data.shap"
(PID.TID 0000.0001) // =======================================================
(PID.TID 0000.0001) ># Shapiro Filter parameters
(PID.TID 0000.0001) > &SHAP_PARM01
(PID.TID 0000.0001) > shap_filt_uvStar=.FALSE.,
(PID.TID 0000.0001) > shap_filt_TrStagg=.TRUE.,
(PID.TID 0000.0001) > Shap_funct=2,
(PID.TID 0000.0001) > nShapT=0,
(PID.TID 0000.0001) > nShapUV=4,
(PID.TID 0000.0001) > nShapTrPhys=4,
(PID.TID 0000.0001) > nShapUVPhys=4,
(PID.TID 0000.0001) >#Shap_TrLength=115000.,
(PID.TID 0000.0001) >#Shap_uvLength=110000.,
(PID.TID 0000.0001) >#Shap_Trtau=3600.,
(PID.TID 0000.0001) >#Shap_uvtau=3600.,
(PID.TID 0000.0001) > &
(PID.TID 0000.0001) 
(PID.TID 0000.0001)  SHAP_FILT_READPARMS: finished reading data.shap
(PID.TID 0000.0001) Shap_funct =   /* select Shapiro filter function */
(PID.TID 0000.0001)                       2
(PID.TID 0000.0001)     ;
(PID.TID 0000.0001) nShapT =   /* power of Shapiro filter for Temperat */
(PID.TID 0000.0001)                       0
(PID.TID 0000.0001)     ;
(PID.TID 0000.0001) nShapS =   /* power of Shapiro filter for Salinity */
(PID.TID 0000.0001)                       0
(PID.TID 0000.0001)     ;
(PID.TID 0000.0001) nShapUV =   /* power of Shapiro filter for momentum */
(PID.TID 0000.0001)                       4
(PID.TID 0000.0001)     ;
(PID.TID 0000.0001) shap_filt_uvStar = /* apply filter before Press. Solver */
(PID.TID 0000.0001)                   F
(PID.TID 0000.0001)     ;
(PID.TID 0000.0001) shap_filt_TrStagg = /* filter T,S before calc PhiHyd (staggerTimeStep) */
(PID.TID 0000.0001)                   T
(PID.TID 0000.0001)     ;
(PID.TID 0000.0001) Shap_alwaysExchUV = /* always exch(U,V)    nShapUV times*/
(PID.TID 0000.0001)                   F
(PID.TID 0000.0001)     ;
(PID.TID 0000.0001) Shap_alwaysExchTr = /* always exch(Tracer) nShapTr times*/
(PID.TID 0000.0001)                   F
(PID.TID 0000.0001)     ;
(PID.TID 0000.0001) nShapTrPhys =   /* power of physical-space filter (Tracer) */
(PID.TID 0000.0001)                       4
(PID.TID 0000.0001)     ;
(PID.TID 0000.0001) nShapUVPhys =   /* power of physical-space filter (Momentum) */
(PID.TID 0000.0001)                       4
(PID.TID 0000.0001)     ;
(PID.TID 0000.0001) Shap_Trtau =   /* time scale of Shapiro filter (Tracer) */
(PID.TID 0000.0001)                 6.000000000000000E+02
(PID.TID 0000.0001)     ;
(PID.TID 0000.0001) Shap_TrLength =   /* Length scale of Shapiro filter (Tracer) */
(PID.TID 0000.0001)                 0.000000000000000E+00
(PID.TID 0000.0001)     ;
(PID.TID 0000.0001) Shap_uvtau =   /* time scale of Shapiro filter (Momentum) */
(PID.TID 0000.0001)                 6.000000000000000E+02
(PID.TID 0000.0001)     ;
(PID.TID 0000.0001) Shap_uvLength =   /* Length scale of Shapiro filter (Momentum) */
(PID.TID 0000.0001)                 0.000000000000000E+00
(PID.TID 0000.0001)     ;
(PID.TID 0000.0001) Shap_noSlip =  /* No-slip parameter (0=Free-slip ; 1=No-slip)*/
(PID.TID 0000.0001)                 0.000000000000000E+00
(PID.TID 0000.0001)     ;
(PID.TID 0000.0001) Shap_diagFreq =   /* Frequency^-1 for diagnostic output (s)*/
(PID.TID 0000.0001)                 0.000000000000000E+00
(PID.TID 0000.0001)     ;
(PID.TID 0000.0001)  DIAGNOSTICS_READPARMS: opening data.diagnostics
(PID.TID 0000.0001)  OPEN_COPY_DATA_FILE: opening file data.diagnostics
(PID.TID 0000.0001) // =======================================================
(PID.TID 0000.0001) // Parameter file "data.diagnostics"
(PID.TID 0000.0001) // =======================================================
(PID.TID 0000.0001) ># Diagnostic Package Choices
(PID.TID 0000.0001) >#-----------------
(PID.TID 0000.0001) ># for each output-stream:
(PID.TID 0000.0001) >#  filename(n) : prefix of the output file name (only 8.c long) for outp.stream n
(PID.TID 0000.0001) >#  frequency(n):< 0 : write snap-shot output every |frequency| seconds
(PID.TID 0000.0001) >#               > 0 : write time-average output every frequency seconds
(PID.TID 0000.0001) >#  timePhase(n)     : write at time = timePhase + multiple of |frequency|
(PID.TID 0000.0001) >#  levels(:,n) : list of levels to write to file (Notes: declared as REAL)
(PID.TID 0000.0001) >#                 when this entry is missing, select all common levels of this list
(PID.TID 0000.0001) >#  fields(:,n) : list of diagnostics fields (8.c) (see "available_diagnostics" file
(PID.TID 0000.0001) >#                 for the list of all available diag. in this particular config)
(PID.TID 0000.0001) >#  fileflags(n) : 8-char string containing per-file flags (a 'D' in the first
(PID.TID 0000.0001) >#                 character means double precision and its generally a good idea
(PID.TID 0000.0001) >#                 for second-moment diagnostics to avoid precision loss)
(PID.TID 0000.0001) >#-----------------
(PID.TID 0000.0001) > &diagnostics_list
(PID.TID 0000.0001) >  diag_mnc     = .TRUE.,
(PID.TID 0000.0001) >  frequency(1) = 12000.,
(PID.TID 0000.0001) >   levels(1,1) = 1.,
(PID.TID 0000.0001) >   fields(1,1) = 'ETAN    ','ETANSQ  ','DETADT2 ',
(PID.TID 0000.0001) >   filename(1) = 'surfDiag',
(PID.TID 0000.0001) >#   fileflags(1)= 'D       ',
(PID.TID 0000.0001) >  frequency(2) = 2592000.,
(PID.TID 0000.0001) >   levels(1,2) = 1.,2.,3.,4.,5.,
(PID.TID 0000.0001) >   fields(1,2) = 'UVEL    ','VVEL    ','WVEL    ','THETA   ','SHAP_dU ',
(PID.TID 0000.0001) >   filename(2) = 'dynDiag',
(PID.TID 0000.0001) >#   fileflags(2)= 'D       ',
(PID.TID 0000.0001) >  frequency(3) = 2592000.,
(PID.TID 0000.0001) >   levels(1,3) = 1.,2.,3.,4.,5.,
(PID.TID 0000.0001) >   fields(1,3) = 'UVELSQ  ','VVELSQ  ','THETASQ ','UV_VEL_C',
(PID.TID 0000.0001) >                 'UTHMASS ','VTHMASS ','WVELTH  ',
(PID.TID 0000.0001) >   filename(3) = 'secmoms',
(PID.TID 0000.0001) >#   fileflags(3)= 'D       ',
(PID.TID 0000.0001) > &
(PID.TID 0000.0001) >
(PID.TID 0000.0001) ># Parameter for Diagnostics of per level statistics:
(PID.TID 0000.0001) >#-----------------
(PID.TID 0000.0001) ># for each output-stream:
(PID.TID 0000.0001) >#  stat_fname(n) : prefix of the output file name (only 8.c long) for outp.stream n
(PID.TID 0000.0001) >#  stat_freq(n):< 0 : write snap-shot output every |stat_freq| seconds
(PID.TID 0000.0001) >#               > 0 : write time-average output every stat_freq seconds
(PID.TID 0000.0001) >#  stat_phase(n)    : write at time = stat_phase + multiple of |stat_freq|
(PID.TID 0000.0001) >#  stat_region(:,n) : list of "regions" (default: 1 region only=global)
(PID.TID 0000.0001) >#  stat_fields(:,n) : list of diagnostics fields (8.c) (see "available_diagnostics.log"
(PID.TID 0000.0001) >#                 file for the list of all available diag. in this particular config)
(PID.TID 0000.0001) >#-----------------
(PID.TID 0000.0001) > &DIAG_STATIS_PARMS
(PID.TID 0000.0001) >#- an example just to check the agreement with MONITOR output:
(PID.TID 0000.0001) >#stat_fields(1,1)= 'ETAN    ','UVEL    ','VVEL    ','WVEL    ', 'THETA   ',
(PID.TID 0000.0001) >#   stat_fname(1)= 'dynStDiag',
(PID.TID 0000.0001) >#    stat_freq(1)= -864000.,
(PID.TID 0000.0001) >#   stat_phase(1)= 0.,
(PID.TID 0000.0001) > &
(PID.TID 0000.0001) >
(PID.TID 0000.0001) 
(PID.TID 0000.0001) S/R DIAGNOSTICS_READPARMS, read namelist "diagnostics_list": start
(PID.TID 0000.0001) S/R DIAGNOSTICS_READPARMS, read namelist "diagnostics_list": OK
(PID.TID 0000.0001) S/R DIAGNOSTICS_READPARMS, read namelist "DIAG_STATIS_PARMS": start
(PID.TID 0000.0001) S/R DIAGNOSTICS_READPARMS, read namelist "DIAG_STATIS_PARMS": OK
(PID.TID 0000.0001) -----------------------------------------------------
(PID.TID 0000.0001)  DIAGNOSTICS_READPARMS: active diagnostics summary:
(PID.TID 0000.0001) -----------------------------------------------------
(PID.TID 0000.0001) Creating Output Stream: surfDiag
(PID.TID 0000.0001) Output Frequency:      12000.000000 ; Phase:           0.000000
(PID.TID 0000.0001)  Averaging Freq.:      12000.000000 , Phase:           0.000000 , Cycle:   1
(PID.TID 0000.0001)  missing value:  1.234567000000E+05 ; for integers:   123456789
(PID.TID 0000.0001)  Levels:       1.
(PID.TID 0000.0001)  Fields:    ETAN     ETANSQ   DETADT2
(PID.TID 0000.0001) Creating Output Stream: dynDiag
(PID.TID 0000.0001) Output Frequency:    2592000.000000 ; Phase:           0.000000
(PID.TID 0000.0001)  Averaging Freq.:    2592000.000000 , Phase:           0.000000 , Cycle:   1
(PID.TID 0000.0001)  missing value:  1.234567000000E+05 ; for integers:   123456789
(PID.TID 0000.0001)  Levels:       1.   2.   3.   4.   5.
(PID.TID 0000.0001)  Fields:    UVEL     VVEL     WVEL     THETA    SHAP_dU
(PID.TID 0000.0001) Creating Output Stream: secmoms
(PID.TID 0000.0001) Output Frequency:    2592000.000000 ; Phase:           0.000000
(PID.TID 0000.0001)  Averaging Freq.:    2592000.000000 , Phase:           0.000000 , Cycle:   1
(PID.TID 0000.0001)  missing value:  1.234567000000E+05 ; for integers:   123456789
(PID.TID 0000.0001)  Levels:       1.   2.   3.   4.   5.
(PID.TID 0000.0001)  Fields:    UVELSQ   VVELSQ   THETASQ  UV_VEL_C UTHMASS  VTHMASS  WVELTH
(PID.TID 0000.0001) -----------------------------------------------------
(PID.TID 0000.0001)  DIAGNOSTICS_READPARMS: statistics diags. summary:
(PID.TID 0000.0001) -----------------------------------------------------
(PID.TID 0000.0001) 
(PID.TID 0000.0001) SET_PARMS: done
(PID.TID 0000.0001) Enter INI_VERTICAL_GRID: setInterFDr=    T ; setCenterDr=    F
(PID.TID 0000.0001) tile:   1 ; Read from file tile001.mitgrid
(PID.TID 0000.0001)   => xC yC dxF dyF rA xG yG dxV dyU rAz dxC dyC rAw rAs dxG dyG
(PID.TID 0000.0001) tile:   2 ; Read from file tile001.mitgrid
(PID.TID 0000.0001)   => xC yC dxF dyF rA xG yG dxV dyU rAz dxC dyC rAw rAs dxG dyG
(PID.TID 0000.0001) tile:   3 ; Read from file tile002.mitgrid
(PID.TID 0000.0001)   => xC yC dxF dyF rA xG yG dxV dyU rAz dxC dyC rAw rAs dxG dyG
(PID.TID 0000.0001) tile:   4 ; Read from file tile002.mitgrid
(PID.TID 0000.0001)   => xC yC dxF dyF rA xG yG dxV dyU rAz dxC dyC rAw rAs dxG dyG
(PID.TID 0000.0001) tile:   5 ; Read from file tile003.mitgrid
(PID.TID 0000.0001)   => xC yC dxF dyF rA xG yG dxV dyU rAz dxC dyC rAw rAs dxG dyG
(PID.TID 0000.0001) tile:   6 ; Read from file tile003.mitgrid
(PID.TID 0000.0001)   => xC yC dxF dyF rA xG yG dxV dyU rAz dxC dyC rAw rAs dxG dyG
(PID.TID 0000.0001) tile:   7 ; Read from file tile004.mitgrid
(PID.TID 0000.0001)   => xC yC dxF dyF rA xG yG dxV dyU rAz dxC dyC rAw rAs dxG dyG
(PID.TID 0000.0001) tile:   8 ; Read from file tile004.mitgrid
(PID.TID 0000.0001)   => xC yC dxF dyF rA xG yG dxV dyU rAz dxC dyC rAw rAs dxG dyG
(PID.TID 0000.0001) tile:   9 ; Read from file tile005.mitgrid
(PID.TID 0000.0001)   => xC yC dxF dyF rA xG yG dxV dyU rAz dxC dyC rAw rAs dxG dyG
(PID.TID 0000.0001) tile:  10 ; Read from file tile005.mitgrid
(PID.TID 0000.0001)   => xC yC dxF dyF rA xG yG dxV dyU rAz dxC dyC rAw rAs dxG dyG
(PID.TID 0000.0001) tile:  11 ; Read from file tile006.mitgrid
(PID.TID 0000.0001)   => xC yC dxF dyF rA xG yG dxV dyU rAz dxC dyC rAw rAs dxG dyG
(PID.TID 0000.0001) tile:  12 ; Read from file tile006.mitgrid
(PID.TID 0000.0001)   => xC yC dxF dyF rA xG yG dxV dyU rAz dxC dyC rAw rAs dxG dyG
(PID.TID 0000.0001) %MON XC_max                       =   1.7854351589505E+02
(PID.TID 0000.0001) %MON XC_min                       =  -1.7854351589505E+02
(PID.TID 0000.0001) %MON XC_mean                      =  -3.5527136788005E-15
(PID.TID 0000.0001) %MON XC_sd                        =   1.0355545336287E+02
(PID.TID 0000.0001) %MON XG_max                       =   1.8000000000000E+02
(PID.TID 0000.0001) %MON XG_min                       =  -1.7708797161002E+02
(PID.TID 0000.0001) %MON XG_mean                      =   1.8603515625000E+00
(PID.TID 0000.0001) %MON XG_sd                        =   1.0357130300504E+02
(PID.TID 0000.0001) %MON DXC_max                      =   3.2375185836900E+05
(PID.TID 0000.0001) %MON DXC_min                      =   1.1142031410131E+05
(PID.TID 0000.0001) %MON DXC_mean                     =   2.8605689051214E+05
(PID.TID 0000.0001) %MON DXC_sd                       =   3.4042087138252E+04
(PID.TID 0000.0001) %MON DXF_max                      =   3.2369947500827E+05
(PID.TID 0000.0001) %MON DXF_min                      =   1.2020820513318E+05
(PID.TID 0000.0001) %MON DXF_mean                     =   2.8605437324820E+05
(PID.TID 0000.0001) %MON DXF_sd                       =   3.4050524252539E+04
(PID.TID 0000.0001) %MON DXG_max                      =   3.2375195872773E+05
(PID.TID 0000.0001) %MON DXG_min                      =   1.0098378008791E+05
(PID.TID 0000.0001) %MON DXG_mean                     =   2.8603818508931E+05
(PID.TID 0000.0001) %MON DXG_sd                       =   3.4140406908005E+04
(PID.TID 0000.0001) %MON DXV_max                      =   3.2380418162750E+05
(PID.TID 0000.0001) %MON DXV_min                      =   8.0152299824136E+04
(PID.TID 0000.0001) %MON DXV_mean                     =   2.8603970633619E+05
(PID.TID 0000.0001) %MON DXV_sd                       =   3.4145142117723E+04
(PID.TID 0000.0001) %MON YC_max                       =   8.7940663871962E+01
(PID.TID 0000.0001) %MON YC_min                       =  -8.7940663871962E+01
(PID.TID 0000.0001) %MON YC_mean                      =   1.1842378929335E-15
(PID.TID 0000.0001) %MON YC_sd                        =   3.8676242969072E+01
(PID.TID 0000.0001) %MON YG_max                       =   9.0000000000000E+01
(PID.TID 0000.0001) %MON YG_min                       =  -9.0000000000000E+01
(PID.TID 0000.0001) %MON YG_mean                      =  -5.9211894646675E-16
(PID.TID 0000.0001) %MON YG_sd                        =   3.8676895860710E+01
(PID.TID 0000.0001) %MON DYC_max                      =   3.2375185836900E+05
(PID.TID 0000.0001) %MON DYC_min                      =   1.1142031410131E+05
(PID.TID 0000.0001) %MON DYC_mean                     =   2.8605689051214E+05
(PID.TID 0000.0001) %MON DYC_sd                       =   3.4042087138252E+04
(PID.TID 0000.0001) %MON DYF_max                      =   3.2369947500827E+05
(PID.TID 0000.0001) %MON DYF_min                      =   1.2020820513318E+05
(PID.TID 0000.0001) %MON DYF_mean                     =   2.8605437324820E+05
(PID.TID 0000.0001) %MON DYF_sd                       =   3.4050524252539E+04
(PID.TID 0000.0001) %MON DYG_max                      =   3.2375195872773E+05
(PID.TID 0000.0001) %MON DYG_min                      =   1.0098378008791E+05
(PID.TID 0000.0001) %MON DYG_mean                     =   2.8603818508931E+05
(PID.TID 0000.0001) %MON DYG_sd                       =   3.4140406908005E+04
(PID.TID 0000.0001) %MON DYU_max                      =   3.2380418162750E+05
(PID.TID 0000.0001) %MON DYU_min                      =   8.0152299824136E+04
(PID.TID 0000.0001) %MON DYU_mean                     =   2.8603970633619E+05
(PID.TID 0000.0001) %MON DYU_sd                       =   3.4145142117723E+04
(PID.TID 0000.0001) %MON RA_max                       =   1.0479260248419E+11
(PID.TID 0000.0001) %MON RA_min                       =   1.4019007022556E+10
(PID.TID 0000.0001) %MON RA_mean                      =   8.2992246709265E+10
(PID.TID 0000.0001) %MON RA_sd                        =   1.7509089299457E+10
(PID.TID 0000.0001) %MON RAW_max                      =   1.0480965274559E+11
(PID.TID 0000.0001) %MON RAW_min                      =   1.2166903467143E+10
(PID.TID 0000.0001) %MON RAW_mean                     =   8.2992246709235E+10
(PID.TID 0000.0001) %MON RAW_sd                       =   1.7481917919656E+10
(PID.TID 0000.0001) %MON RAS_max                      =   1.0480965274559E+11
(PID.TID 0000.0001) %MON RAS_min                      =   1.2166903467143E+10
(PID.TID 0000.0001) %MON RAS_mean                     =   8.2992246709235E+10
(PID.TID 0000.0001) %MON RAS_sd                       =   1.7481917919656E+10
(PID.TID 0000.0001) %MON RAZ_max                      =   1.0484349334619E+11
(PID.TID 0000.0001) %MON RAZ_min                      =   8.8317900612505E+09
(PID.TID 0000.0001) %MON RAZ_mean                     =   8.2992246709235E+10
(PID.TID 0000.0001) %MON RAZ_sd                       =   1.7482297311044E+10
(PID.TID 0000.0001) %MON AngleCS_max                  =   1.0000000000000E+00
(PID.TID 0000.0001) %MON AngleCS_min                  =   1.0000000000000E+00
(PID.TID 0000.0001) %MON AngleCS_mean                 =   1.0000000000000E+00
(PID.TID 0000.0001) %MON AngleCS_sd                   =   0.0000000000000E+00
(PID.TID 0000.0001) %MON AngleSN_max                  =   0.0000000000000E+00
(PID.TID 0000.0001) %MON AngleSN_min                  =   0.0000000000000E+00
(PID.TID 0000.0001) %MON AngleSN_mean                 =   0.0000000000000E+00
(PID.TID 0000.0001) %MON AngleSN_sd                   =   0.0000000000000E+00
(PID.TID 0000.0001) 
(PID.TID 0000.0001) SET_REF_STATE: PhiRef/g [m] at level Center (integer)
(PID.TID 0000.0001)                      and at level Interface (half-int.) :
(PID.TID 0000.0001)  K=  0.5  ;  r=       100000.0  ;  phiRef/g=        0.000
(PID.TID 0000.0001)  K=  1.0  ;  r=        95000.0  ;  phiRef/g=      418.526
(PID.TID 0000.0001)  K=  1.5  ;  r=        90000.0  ;  phiRef/g=     1219.560
(PID.TID 0000.0001)  K=  2.0  ;  r=        77500.0  ;  phiRef/g=     2044.053
(PID.TID 0000.0001)  K=  2.5  ;  r=        65000.0  ;  phiRef/g=     3664.142
(PID.TID 0000.0001)  K=  3.0  ;  r=        50000.0  ;  phiRef/g=     5384.296
(PID.TID 0000.0001)  K=  3.5  ;  r=        35000.0  ;  phiRef/g=     7701.142
(PID.TID 0000.0001)  K=  4.0  ;  r=        25000.0  ;  phiRef/g=    10200.400
(PID.TID 0000.0001)  K=  4.5  ;  r=        15000.0  ;  phiRef/g=    13521.874
(PID.TID 0000.0001)  K=  5.0  ;  r=         7500.0  ;  phiRef/g=    17856.056
(PID.TID 0000.0001)  K=  5.5  ;  r=            0.0  ;  phiRef/g=    38969.174
(PID.TID 0000.0001) // =======================================================
(PID.TID 0000.0001) // Field Model R_low (ini_masks_etc) at iteration          1
(PID.TID 0000.0001) // CMIN =          1.000000000000000E+32
(PID.TID 0000.0001) // CMAX =         -1.000000000000000E+32
(PID.TID 0000.0001) // CINT =          0.000000000000000E+00
(PID.TID 0000.0001) // SYMBOLS (CMIN->CMAX): -abcdefghijklmnopqrstuvwxyz+
(PID.TID 0000.0001) //                  0.0: .
(PID.TID 0000.0001) // RANGE I (Lo:Hi:Step):(  -1: 194:   1)
(PID.TID 0000.0001) // RANGE J (Lo:Hi:Step):(  34:  -1:  -1)
(PID.TID 0000.0001) // RANGE K (Lo:Hi:Step):(   1:   1:   1)
(PID.TID 0000.0001) // =======================================================
(PID.TID 0000.0001) // =======================================================
(PID.TID 0000.0001) // END OF FIELD                                          =
(PID.TID 0000.0001) // =======================================================
(PID.TID 0000.0001) 
(PID.TID 0000.0001) // =======================================================
(PID.TID 0000.0001) // Field Model Ro_surf (ini_masks_etc) at iteration          1
(PID.TID 0000.0001) // CMIN =          1.000000000000000E+05
(PID.TID 0000.0001) // CMAX =          1.000000000000000E+05
(PID.TID 0000.0001) // CINT =          0.000000000000000E+00
(PID.TID 0000.0001) // SYMBOLS (CMIN->CMAX): -abcdefghijklmnopqrstuvwxyz+
(PID.TID 0000.0001) //                  0.0: .
(PID.TID 0000.0001) // RANGE I (Lo:Hi:Step):(  -1: 194:   1)
(PID.TID 0000.0001) // RANGE J (Lo:Hi:Step):(  34:  -1:  -1)
(PID.TID 0000.0001) // RANGE K (Lo:Hi:Step):(   1:   1:   1)
(PID.TID 0000.0001) // =======================================================
(PID.TID 0000.0001) // =======================================================
(PID.TID 0000.0001) // END OF FIELD                                          =
(PID.TID 0000.0001) // =======================================================
(PID.TID 0000.0001) 
(PID.TID 0000.0001) // =======================================================
(PID.TID 0000.0001) // Field hFacC at iteration          1
(PID.TID 0000.0001) // CMIN =          1.000000000000000E+00
(PID.TID 0000.0001) // CMAX =          1.000000000000000E+00
(PID.TID 0000.0001) // CINT =          0.000000000000000E+00
(PID.TID 0000.0001) // SYMBOLS (CMIN->CMAX): -abcdefghijklmnopqrstuvwxyz+
(PID.TID 0000.0001) //                  0.0: .
(PID.TID 0000.0001) // RANGE I (Lo:Hi:Step):(  -1: 194:   1)
(PID.TID 0000.0001) // RANGE J (Lo:Hi:Step):(  34:  -1:  -1)
(PID.TID 0000.0001) // RANGE K (Lo:Hi:Step):(   1:   1:   1)
(PID.TID 0000.0001) // =======================================================
(PID.TID 0000.0001) // =======================================================
(PID.TID 0000.0001) // END OF FIELD                                          =
(PID.TID 0000.0001) // =======================================================
(PID.TID 0000.0001) 
(PID.TID 0000.0001) // =======================================================
(PID.TID 0000.0001) // Field hFacW at iteration          1
(PID.TID 0000.0001) // CMIN =          1.000000000000000E+00
(PID.TID 0000.0001) // CMAX =          1.000000000000000E+00
(PID.TID 0000.0001) // CINT =          0.000000000000000E+00
(PID.TID 0000.0001) // SYMBOLS (CMIN->CMAX): -abcdefghijklmnopqrstuvwxyz+
(PID.TID 0000.0001) //                  0.0: .
(PID.TID 0000.0001) // RANGE I (Lo:Hi:Step):(  -1: 194:   1)
(PID.TID 0000.0001) // RANGE J (Lo:Hi:Step):(  34:  -1:  -1)
(PID.TID 0000.0001) // RANGE K (Lo:Hi:Step):(   1:   1:   1)
(PID.TID 0000.0001) // =======================================================
(PID.TID 0000.0001) // =======================================================
(PID.TID 0000.0001) // END OF FIELD                                          =
(PID.TID 0000.0001) // =======================================================
(PID.TID 0000.0001) 
(PID.TID 0000.0001) // =======================================================
(PID.TID 0000.0001) // Field hFacS at iteration          1
(PID.TID 0000.0001) // CMIN =          1.000000000000000E+00
(PID.TID 0000.0001) // CMAX =          1.000000000000000E+00
(PID.TID 0000.0001) // CINT =          0.000000000000000E+00
(PID.TID 0000.0001) // SYMBOLS (CMIN->CMAX): -abcdefghijklmnopqrstuvwxyz+
(PID.TID 0000.0001) //                  0.0: .
(PID.TID 0000.0001) // RANGE I (Lo:Hi:Step):(  -1: 194:   1)
(PID.TID 0000.0001) // RANGE J (Lo:Hi:Step):(  34:  -1:  -1)
(PID.TID 0000.0001) // RANGE K (Lo:Hi:Step):(   1:   1:   1)
(PID.TID 0000.0001) // =======================================================
(PID.TID 0000.0001) // =======================================================
(PID.TID 0000.0001) // END OF FIELD                                          =
(PID.TID 0000.0001) // =======================================================
(PID.TID 0000.0001) 
(PID.TID 0000.0001) 
(PID.TID 0000.0001) // ===================================
(PID.TID 0000.0001) // GAD parameters :
(PID.TID 0000.0001) // ===================================
(PID.TID 0000.0001) tempAdvScheme =   /* Temp. Horiz.Advection scheme selector */
(PID.TID 0000.0001)                       2
(PID.TID 0000.0001)     ;
(PID.TID 0000.0001) tempVertAdvScheme =   /* Temp. Vert. Advection scheme selector */
(PID.TID 0000.0001)                       2
(PID.TID 0000.0001)     ;
(PID.TID 0000.0001) tempMultiDimAdvec =   /* use Muti-Dim Advec method for Temp */
(PID.TID 0000.0001)                   F
(PID.TID 0000.0001)     ;
(PID.TID 0000.0001) tempSOM_Advection = /* use 2nd Order Moment Advection for Temp */
(PID.TID 0000.0001)                   F
(PID.TID 0000.0001)     ;
(PID.TID 0000.0001) AdamsBashforthGt = /* apply Adams-Bashforth extrapolation on Gt */
(PID.TID 0000.0001)                   T
(PID.TID 0000.0001)     ;
(PID.TID 0000.0001) AdamsBashforth_T = /* apply Adams-Bashforth extrapolation on Temp */
(PID.TID 0000.0001)                   F
(PID.TID 0000.0001)     ;
(PID.TID 0000.0001) saltAdvScheme =   /* Salt. Horiz.advection scheme selector */
(PID.TID 0000.0001)                       2
(PID.TID 0000.0001)     ;
(PID.TID 0000.0001) saltVertAdvScheme =   /* Salt. Vert. Advection scheme selector */
(PID.TID 0000.0001)                       2
(PID.TID 0000.0001)     ;
(PID.TID 0000.0001) saltMultiDimAdvec =   /* use Muti-Dim Advec method for Salt */
(PID.TID 0000.0001)                   F
(PID.TID 0000.0001)     ;
(PID.TID 0000.0001) saltSOM_Advection = /* use 2nd Order Moment Advection for Salt */
(PID.TID 0000.0001)                   F
(PID.TID 0000.0001)     ;
(PID.TID 0000.0001) AdamsBashforthGs = /* apply Adams-Bashforth extrapolation on Gs */
(PID.TID 0000.0001)                   T
(PID.TID 0000.0001)     ;
(PID.TID 0000.0001) AdamsBashforth_S = /* apply Adams-Bashforth extrapolation on Salt */
(PID.TID 0000.0001)                   F
(PID.TID 0000.0001)     ;
(PID.TID 0000.0001) // ===================================
(PID.TID 0000.0001) ------------------------------------------------------------
(PID.TID 0000.0001) DIAGNOSTICS_SET_LEVELS: done
(PID.TID 0000.0001)  Total Nb of available Diagnostics: ndiagt=   177
(PID.TID 0000.0001)  write list of available Diagnostics to file: available_diagnostics.log
(PID.TID 0000.0001) SETDIAG: Allocate  1 x  1 Levels for Diagnostic #    23 ETAN
(PID.TID 0000.0001) SETDIAG: Allocate  1 x  1 Levels for Diagnostic #    24 ETANSQ
(PID.TID 0000.0001) SETDIAG: Allocate  1 x  1 Levels for Diagnostic #    25 DETADT2
(PID.TID 0000.0001) SETDIAG: Allocate  5 x  1 Levels for Diagnostic #    29 UVEL
(PID.TID 0000.0001) SETDIAG: Allocate  5 x  1 Levels for Diagnostic #    30 VVEL
(PID.TID 0000.0001) SETDIAG: Allocate  5 x  1 Levels for Diagnostic #    31 WVEL
(PID.TID 0000.0001) SETDIAG: Allocate  5 x  1 Levels for Diagnostic #    26 THETA
(PID.TID 0000.0001) SETDIAG: Allocate  5 x  1 Levels for Diagnostic #   175 SHAP_dU
(PID.TID 0000.0001) SETDIAG: Allocate  5 x  1 Levels for Diagnostic #    34 UVELSQ
(PID.TID 0000.0001) SETDIAG: Allocate  5 x  1 Levels for Diagnostic #    35 VVELSQ
(PID.TID 0000.0001) SETDIAG: Allocate  5 x  1 Levels for Diagnostic #    32 THETASQ
(PID.TID 0000.0001) SETDIAG: Allocate  5 x  1 Levels for Diagnostic #    39 UV_VEL_C
(PID.TID 0000.0001) SETDIAG: Allocate  5 x  1 Levels for Diagnostic #    46 UTHMASS
(PID.TID 0000.0001) SETDIAG: Allocate  5 x  1 Levels for Diagnostic #    47 VTHMASS
(PID.TID 0000.0001) SETDIAG: Allocate  5 x  1 Levels for Diagnostic #    54 WVELTH
(PID.TID 0000.0001)   space allocated for all diagnostics:      63 levels
(PID.TID 0000.0001)   set mate pointer for diag #    29  UVEL     , Parms: UU      MR , mate:    30
(PID.TID 0000.0001)   set mate pointer for diag #    30  VVEL     , Parms: VV      MR , mate:    29
(PID.TID 0000.0001)   set mate pointer for diag #    34  UVELSQ   , Parms: UU P    MR , mate:    35
(PID.TID 0000.0001)   set mate pointer for diag #    35  VVELSQ   , Parms: VV P    MR , mate:    34
(PID.TID 0000.0001)   set mate pointer for diag #    39  UV_VEL_C , Parms: UM      MR , mate:    39
(PID.TID 0000.0001)   set mate pointer for diag #    46  UTHMASS  , Parms: UU      MR , mate:    47
(PID.TID 0000.0001)   set mate pointer for diag #    47  VTHMASS  , Parms: VV      MR , mate:    46
(PID.TID 0000.0001) DIAGNOSTICS_SET_POINTERS: done
(PID.TID 0000.0001) ------------------------------------------------------------
(PID.TID 0000.0001) DIAGSTATS_SET_REGIONS: define no region
(PID.TID 0000.0001) ------------------------------------------------------------
(PID.TID 0000.0001)   space allocated for all stats-diags:       0 levels
(PID.TID 0000.0001) DIAGSTATS_SET_POINTERS: done
(PID.TID 0000.0001) ------------------------------------------------------------
(PID.TID 0000.0001) %MON fCori_max                    =   1.4574827780704E-04
(PID.TID 0000.0001) %MON fCori_min                    =  -1.4574827780704E-04
(PID.TID 0000.0001) %MON fCori_mean                   =  -2.2587545260115E-21
(PID.TID 0000.0001) %MON fCori_sd                     =   8.4202189509968E-05
(PID.TID 0000.0001) %MON fCoriG_max                   =   1.4584247033981E-04
(PID.TID 0000.0001) %MON fCoriG_min                   =  -1.4584247033981E-04
(PID.TID 0000.0001) %MON fCoriG_mean                  =   5.6468863150287E-21
(PID.TID 0000.0001) %MON fCoriG_sd                    =   8.4202189509968E-05
(PID.TID 0000.0001) %MON fCoriCos_max                 =   1.4580166994612E-04
(PID.TID 0000.0001) %MON fCoriCos_min                 =   5.2407700865903E-06
(PID.TID 0000.0001) %MON fCoriCos_mean                =   1.1514045869113E-04
(PID.TID 0000.0001) %MON fCoriCos_sd                  =   3.0375849106513E-05
(PID.TID 0000.0001) INI_CG2D: CG2D normalisation factor =  9.9119603843467461E-06
(PID.TID 0000.0001) 
(PID.TID 0000.0001) // =======================================================
(PID.TID 0000.0001) // Model configuration
(PID.TID 0000.0001) // =======================================================
(PID.TID 0000.0001) //
(PID.TID 0000.0001) // "Physical" paramters ( PARM01 in namelist )
(PID.TID 0000.0001) //
(PID.TID 0000.0001) buoyancyRelation = /* Type of relation to get Buoyancy */
(PID.TID 0000.0001)               'ATMOSPHERIC'
(PID.TID 0000.0001)     ;
(PID.TID 0000.0001) fluidIsAir  =  /* fluid major constituent is Air */
(PID.TID 0000.0001)                   T
(PID.TID 0000.0001)     ;
(PID.TID 0000.0001) fluidIsWater=  /* fluid major constituent is Water */
(PID.TID 0000.0001)                   F
(PID.TID 0000.0001)     ;
(PID.TID 0000.0001) usingPCoords =  /* use p (or p*) vertical coordinate */
(PID.TID 0000.0001)                   T
(PID.TID 0000.0001)     ;
(PID.TID 0000.0001) usingZCoords =  /* use z (or z*) vertical coordinate */
(PID.TID 0000.0001)                   F
(PID.TID 0000.0001)     ;
(PID.TID 0000.0001) tRef =   /* Reference temperature profile ( oC or K ) */
(PID.TID 0000.0001)                 2.810890000000000E+02,      /* K =  1 */
(PID.TID 0000.0001)                 2.893210000000000E+02,      /* K =  2 */
(PID.TID 0000.0001)                 3.071910000000000E+02,      /* K =  3 */
(PID.TID 0000.0001)                 3.313770000000000E+02,      /* K =  4 */
(PID.TID 0000.0001)                 4.324130000000000E+02       /* K =  5 */
(PID.TID 0000.0001)     ;
(PID.TID 0000.0001) sRef =   /* Reference salinity profile ( psu ) */
(PID.TID 0000.0001)     5 @  0.000000000000000E+00              /* K =  1:  5 */
(PID.TID 0000.0001)     ;
(PID.TID 0000.0001) viscAh =   /* Lateral eddy viscosity ( m^2/s ) */
(PID.TID 0000.0001)                 0.000000000000000E+00
(PID.TID 0000.0001)     ;
(PID.TID 0000.0001) viscAhMax =   /* Maximum lateral eddy viscosity ( m^2/s ) */
(PID.TID 0000.0001)                 1.000000000000000E+21
(PID.TID 0000.0001)     ;
(PID.TID 0000.0001) viscAhGrid =   /* Grid dependent lateral eddy viscosity ( non-dim. ) */
(PID.TID 0000.0001)                 0.000000000000000E+00
(PID.TID 0000.0001)     ;
(PID.TID 0000.0001) useFullLeith =   /* Use Full Form of Leith Viscosity on/off flag*/
(PID.TID 0000.0001)                   F
(PID.TID 0000.0001)     ;
(PID.TID 0000.0001) useStrainTensionVisc =   /* Use StrainTension Form of Viscous Operator on/off flag*/
(PID.TID 0000.0001)                   F
(PID.TID 0000.0001)     ;
(PID.TID 0000.0001) useAreaViscLength =   /* Use area for visc length instead of geom. mean*/
(PID.TID 0000.0001)                   F
(PID.TID 0000.0001)     ;
(PID.TID 0000.0001) viscC2leith = /* Leith harmonic visc. factor (on grad(vort),non-dim.) */
(PID.TID 0000.0001)                 0.000000000000000E+00
(PID.TID 0000.0001)     ;
(PID.TID 0000.0001) viscC2leithD = /* Leith harmonic viscosity factor (on grad(div),non-dim.) */
(PID.TID 0000.0001)                 0.000000000000000E+00
(PID.TID 0000.0001)     ;
(PID.TID 0000.0001) viscC2smag =   /* Smagorinsky harmonic viscosity factor (non-dim.) */
(PID.TID 0000.0001)                 0.000000000000000E+00
(PID.TID 0000.0001)     ;
(PID.TID 0000.0001) viscA4 =   /* Lateral biharmonic viscosity ( m^4/s ) */
(PID.TID 0000.0001)                 0.000000000000000E+00
(PID.TID 0000.0001)     ;
(PID.TID 0000.0001) viscA4Max =   /* Maximum biharmonic viscosity ( m^2/s ) */
(PID.TID 0000.0001)                 1.000000000000000E+21
(PID.TID 0000.0001)     ;
(PID.TID 0000.0001) viscA4Grid =   /* Grid dependent biharmonic viscosity ( non-dim. ) */
(PID.TID 0000.0001)                 0.000000000000000E+00
(PID.TID 0000.0001)     ;
(PID.TID 0000.0001) viscC4leith = /* Leith biharm viscosity factor (on grad(vort), non-dim.) */
(PID.TID 0000.0001)                 0.000000000000000E+00
(PID.TID 0000.0001)     ;
(PID.TID 0000.0001) viscC4leithD = /* Leith biharm viscosity factor (on grad(div), non-dim.) */
(PID.TID 0000.0001)                 0.000000000000000E+00
(PID.TID 0000.0001)     ;
(PID.TID 0000.0001) viscC4Smag = /* Smagorinsky biharm viscosity factor (non-dim) */
(PID.TID 0000.0001)                 0.000000000000000E+00
(PID.TID 0000.0001)     ;
(PID.TID 0000.0001) no_slip_sides =  /* Viscous BCs: No-slip sides */
(PID.TID 0000.0001)                   F
(PID.TID 0000.0001)     ;
(PID.TID 0000.0001) sideDragFactor = /* side-drag scaling factor (non-dim) */
(PID.TID 0000.0001)                 2.000000000000000E+00
(PID.TID 0000.0001)     ;
(PID.TID 0000.0001) viscAr =   /* Vertical eddy viscosity (Pa^2/s ) */
(PID.TID 0000.0001)                 0.000000000000000E+00
(PID.TID 0000.0001)     ;
(PID.TID 0000.0001) no_slip_bottom =  /* Viscous BCs: No-slip bottom */
(PID.TID 0000.0001)                   F
(PID.TID 0000.0001)     ;
(PID.TID 0000.0001) bottomDragLinear = /* linear bottom-drag coefficient ( m/s ) */
(PID.TID 0000.0001)                 0.000000000000000E+00
(PID.TID 0000.0001)     ;
(PID.TID 0000.0001) bottomDragQuadratic = /* quadratic bottom-drag coefficient (-) */
(PID.TID 0000.0001)                 0.000000000000000E+00
(PID.TID 0000.0001)     ;
(PID.TID 0000.0001) diffKhT =   /* Laplacian diffusion of heat laterally ( m^2/s ) */
(PID.TID 0000.0001)                 0.000000000000000E+00
(PID.TID 0000.0001)     ;
(PID.TID 0000.0001) diffK4T =   /* Biharmonic diffusion of heat laterally ( m^4/s ) */
(PID.TID 0000.0001)                 0.000000000000000E+00
(PID.TID 0000.0001)     ;
(PID.TID 0000.0001) diffKhS =   /* Laplacian diffusion of salt laterally ( m^2/s ) */
(PID.TID 0000.0001)                 0.000000000000000E+00
(PID.TID 0000.0001)     ;
(PID.TID 0000.0001) diffK4S =   /* Biharmonic diffusion of salt laterally ( m^4/s ) */
(PID.TID 0000.0001)                 0.000000000000000E+00
(PID.TID 0000.0001)     ;
(PID.TID 0000.0001) diffKrNrT = /* vertical profile of vertical diffusion of Temp (Pa^2/s )*/
(PID.TID 0000.0001)     5 @  0.000000000000000E+00              /* K =  1:  5 */
(PID.TID 0000.0001)     ;
(PID.TID 0000.0001) diffKrNrS = /* vertical profile of vertical diffusion of Salt (Pa^2/s )*/
(PID.TID 0000.0001)     5 @  0.000000000000000E+00              /* K =  1:  5 */
(PID.TID 0000.0001)     ;
(PID.TID 0000.0001) diffKrBL79surf = /* Surface diffusion for Bryan and Lewis 79 ( m^2/s ) */
(PID.TID 0000.0001)                 0.000000000000000E+00
(PID.TID 0000.0001)     ;
(PID.TID 0000.0001) diffKrBL79deep = /* Deep diffusion for Bryan and Lewis 1979 ( m^2/s ) */
(PID.TID 0000.0001)                 0.000000000000000E+00
(PID.TID 0000.0001)     ;
(PID.TID 0000.0001) diffKrBL79scl = /* Depth scale for Bryan and Lewis 1979 ( m ) */
(PID.TID 0000.0001)                 2.000000000000000E+02
(PID.TID 0000.0001)     ;
(PID.TID 0000.0001) diffKrBL79Ho = /* Turning depth for Bryan and Lewis 1979 ( m ) */
(PID.TID 0000.0001)                -2.000000000000000E+03
(PID.TID 0000.0001)     ;
(PID.TID 0000.0001) ivdc_kappa = /* Implicit Vertical Diffusivity for Convection (Pa^2/s ) */
(PID.TID 0000.0001)                 0.000000000000000E+00
(PID.TID 0000.0001)     ;
(PID.TID 0000.0001) hMixCriteria=  /* Criteria for mixed-layer diagnostic */
(PID.TID 0000.0001)                -8.000000000000000E-01
(PID.TID 0000.0001)     ;
(PID.TID 0000.0001) dRhoSmall=  /* Parameter for mixed-layer diagnostic */
(PID.TID 0000.0001)                 1.000000000000000E-06
(PID.TID 0000.0001)     ;
(PID.TID 0000.0001) hMixSmooth=  /* Smoothing parameter for mixed-layer diagnostic */
(PID.TID 0000.0001)                 0.000000000000000E+00
(PID.TID 0000.0001)     ;
(PID.TID 0000.0001) eosType =  /* Type of Equation of State */
(PID.TID 0000.0001)               'IDEALG'
(PID.TID 0000.0001)     ;
(PID.TID 0000.0001) tAlpha =   /* Linear EOS thermal expansion coefficient ( 1/oC ) */
(PID.TID 0000.0001)                 1.234567000000000E+05
(PID.TID 0000.0001)     ;
(PID.TID 0000.0001) sBeta =   /* Linear EOS haline contraction coefficient ( 1/psu ) */
(PID.TID 0000.0001)                 1.234567000000000E+05
(PID.TID 0000.0001)     ;
(PID.TID 0000.0001) atm_Rd =  /* gas constant for dry air ( J/kg/K ) */
(PID.TID 0000.0001)                 2.868571428571428E+02
(PID.TID 0000.0001)     ;
(PID.TID 0000.0001) atm_Cp =  /* specific heat (Cp) of dry air ( J/kg/K ) */
(PID.TID 0000.0001)                 1.004000000000000E+03
(PID.TID 0000.0001)     ;
(PID.TID 0000.0001) atm_kappa =  /* kappa (=Rd/Cp ) of dry air */
(PID.TID 0000.0001)                 2.857142857142857E-01
(PID.TID 0000.0001)     ;
(PID.TID 0000.0001) atm_Rq = /* water vap. specific vol. anomaly relative to dry air */
(PID.TID 0000.0001)                 0.000000000000000E+00
(PID.TID 0000.0001)     ;
(PID.TID 0000.0001) atm_Po =  /* standard reference pressure ( Pa ) */
(PID.TID 0000.0001)                 1.000000000000000E+05
(PID.TID 0000.0001)     ;
(PID.TID 0000.0001) integr_GeoPot =  /* select how the geopotential is integrated */
(PID.TID 0000.0001)                       2
(PID.TID 0000.0001)     ;
(PID.TID 0000.0001) selectFindRoSurf=  /* select how Surf.Ref. pressure is defined */
(PID.TID 0000.0001)                       0
(PID.TID 0000.0001)     ;
(PID.TID 0000.0001) rhonil =   /* Reference density ( kg/m^3 ) */
(PID.TID 0000.0001)                 9.998000000000000E+02
(PID.TID 0000.0001)     ;
(PID.TID 0000.0001) rhoConst =   /* Reference density ( kg/m^3 ) */
(PID.TID 0000.0001)                 1.000000000000000E+00
(PID.TID 0000.0001)     ;
(PID.TID 0000.0001) rhoFacC = /* normalized Reference density @ cell-Center (-) */
(PID.TID 0000.0001)     5 @  1.000000000000000E+00              /* K =  1:  5 */
(PID.TID 0000.0001)     ;
(PID.TID 0000.0001) rhoFacF = /* normalized Reference density @ W-Interface (-) */
(PID.TID 0000.0001)     6 @  1.000000000000000E+00              /* K =  1:  6 */
(PID.TID 0000.0001)     ;
(PID.TID 0000.0001) rhoConstFresh =   /* Reference density ( kg/m^3 ) */
(PID.TID 0000.0001)                 1.000000000000000E+00
(PID.TID 0000.0001)     ;
(PID.TID 0000.0001) gravity =   /* Gravitational acceleration ( m/s^2 ) */
(PID.TID 0000.0001)                 9.810000000000000E+00
(PID.TID 0000.0001)     ;
(PID.TID 0000.0001) gBaro =   /* Barotropic gravity ( m/s^2 ) */
(PID.TID 0000.0001)                 9.810000000000000E+00
(PID.TID 0000.0001)     ;
(PID.TID 0000.0001) rotationPeriod =   /* Rotation Period ( s ) */
(PID.TID 0000.0001)                 8.616400000000000E+04
(PID.TID 0000.0001)     ;
(PID.TID 0000.0001) omega =   /* Angular velocity ( rad/s ) */
(PID.TID 0000.0001)                 7.292123516990375E-05
(PID.TID 0000.0001)     ;
(PID.TID 0000.0001) f0 =   /* Reference coriolis parameter ( 1/s ) */
(PID.TID 0000.0001)                 1.000000000000000E-04
(PID.TID 0000.0001)     ;
(PID.TID 0000.0001) beta =   /* Beta ( 1/(m.s) ) */
(PID.TID 0000.0001)                 9.999999999999999E-12
(PID.TID 0000.0001)     ;
(PID.TID 0000.0001) freeSurfFac =   /* Implicit free surface factor */
(PID.TID 0000.0001)                 1.000000000000000E+00
(PID.TID 0000.0001)     ;
(PID.TID 0000.0001) implicitFreeSurface =   /* Implicit free surface on/off flag */
(PID.TID 0000.0001)                   T
(PID.TID 0000.0001)     ;
(PID.TID 0000.0001) rigidLid =   /* Rigid lid on/off flag */
(PID.TID 0000.0001)                   F
(PID.TID 0000.0001)     ;
(PID.TID 0000.0001) implicSurfPress =   /* Surface Pressure implicit factor (0-1)*/
(PID.TID 0000.0001)                 1.000000000000000E+00
(PID.TID 0000.0001)     ;
(PID.TID 0000.0001) implicDiv2Dflow =   /* Barot. Flow Div. implicit factor (0-1)*/
(PID.TID 0000.0001)                 1.000000000000000E+00
(PID.TID 0000.0001)     ;
(PID.TID 0000.0001) exactConserv =   /* Exact Volume Conservation on/off flag*/
(PID.TID 0000.0001)                   F
(PID.TID 0000.0001)     ;
(PID.TID 0000.0001) linFSConserveTr =   /* Tracer correction for Lin Free Surface on/off flag*/
(PID.TID 0000.0001)                   F
(PID.TID 0000.0001)     ;
(PID.TID 0000.0001) uniformLin_PhiSurf =   /* use uniform Bo_surf on/off flag*/
(PID.TID 0000.0001)                   T
(PID.TID 0000.0001)     ;
(PID.TID 0000.0001) nonlinFreeSurf =   /* Non-linear Free Surf. options (-1,0,1,2,3)*/
(PID.TID 0000.0001)                       0
(PID.TID 0000.0001)     ;
(PID.TID 0000.0001)      -1,0= Off ; 1,2,3= On, 2=+rescale gU,gV, 3=+update cg2d solv.
(PID.TID 0000.0001) hFacInf =   /* lower threshold for hFac (nonlinFreeSurf only)*/
(PID.TID 0000.0001)                 2.000000000000000E-01
(PID.TID 0000.0001)     ;
(PID.TID 0000.0001) hFacSup =   /* upper threshold for hFac (nonlinFreeSurf only)*/
(PID.TID 0000.0001)                 2.000000000000000E+00
(PID.TID 0000.0001)     ;
(PID.TID 0000.0001) select_rStar = /* r* Vertical coord. options (=0 r coord.; > 0 uses r*) */
(PID.TID 0000.0001)                       0
(PID.TID 0000.0001)     ;
(PID.TID 0000.0001) selectAddFluid = /* option for mass source/sink of fluid (=0: off) */
(PID.TID 0000.0001)                       0
(PID.TID 0000.0001)     ;
(PID.TID 0000.0001) useRealFreshWaterFlux = /* Real Fresh Water Flux on/off flag*/
(PID.TID 0000.0001)                   F
(PID.TID 0000.0001)     ;
(PID.TID 0000.0001) temp_EvPrRn = /* Temp. of Evap/Prec/R (UNSET=use local T)(oC)*/
(PID.TID 0000.0001)                 1.234567000000000E+05
(PID.TID 0000.0001)     ;
(PID.TID 0000.0001) salt_EvPrRn = /* Salin. of Evap/Prec/R (UNSET=use local S)(ppt)*/
(PID.TID 0000.0001)                 0.000000000000000E+00
(PID.TID 0000.0001)     ;
(PID.TID 0000.0001) convertFW2Salt = /* convert F.W. Flux to Salt Flux (-1=use local S)(ppt)*/
(PID.TID 0000.0001)                 3.500000000000000E+01
(PID.TID 0000.0001)     ;
(PID.TID 0000.0001) use3Dsolver = /* use 3-D pressure solver on/off flag */
(PID.TID 0000.0001)                   F
(PID.TID 0000.0001)     ;
(PID.TID 0000.0001) nonHydrostatic =  /* Non-Hydrostatic on/off flag */
(PID.TID 0000.0001)                   F
(PID.TID 0000.0001)     ;
(PID.TID 0000.0001) nh_Am2 = /* Non-Hydrostatic terms scaling factor */
(PID.TID 0000.0001)                 1.000000000000000E+00
(PID.TID 0000.0001)     ;
(PID.TID 0000.0001) quasiHydrostatic = /* Quasi-Hydrostatic on/off flag */
(PID.TID 0000.0001)                   F
(PID.TID 0000.0001)     ;
(PID.TID 0000.0001) momStepping =  /* Momentum equation on/off flag */
(PID.TID 0000.0001)                   T
(PID.TID 0000.0001)     ;
(PID.TID 0000.0001) vectorInvariantMomentum= /* Vector-Invariant Momentum on/off */
(PID.TID 0000.0001)                   T
(PID.TID 0000.0001)     ;
(PID.TID 0000.0001) momAdvection =  /* Momentum advection on/off flag */
(PID.TID 0000.0001)                   T
(PID.TID 0000.0001)     ;
(PID.TID 0000.0001) momViscosity =  /* Momentum viscosity on/off flag */
(PID.TID 0000.0001)                   T
(PID.TID 0000.0001)     ;
(PID.TID 0000.0001) momImplVertAdv =/* Momentum implicit vert. advection on/off*/
(PID.TID 0000.0001)                   F
(PID.TID 0000.0001)     ;
(PID.TID 0000.0001) implicitViscosity = /* Implicit viscosity on/off flag */
(PID.TID 0000.0001)                   F
(PID.TID 0000.0001)     ;
(PID.TID 0000.0001) metricTerms =  /* metric-Terms on/off flag */
(PID.TID 0000.0001)                   F
(PID.TID 0000.0001)     ;
(PID.TID 0000.0001) useNHMTerms = /* Non-Hydrostatic Metric-Terms on/off */
(PID.TID 0000.0001)                   F
(PID.TID 0000.0001)     ;
(PID.TID 0000.0001) useConstantF =  /* use Constant f0 Coriolis flag */
(PID.TID 0000.0001)                   F
(PID.TID 0000.0001)     ;
(PID.TID 0000.0001) useBetaPlaneF = /* use Beta-Plane Coriolis flag */
(PID.TID 0000.0001)                   F
(PID.TID 0000.0001)     ;
(PID.TID 0000.0001) useSphereF  =   /* use Spherical Coriolis flag */
(PID.TID 0000.0001)                   T
(PID.TID 0000.0001)     ;
(PID.TID 0000.0001) use3dCoriolis = /* 3-D Coriolis on/off flag */
(PID.TID 0000.0001)                   F
(PID.TID 0000.0001)     ;
(PID.TID 0000.0001) useCoriolis =  /* Coriolis on/off flag */
(PID.TID 0000.0001)                   T
(PID.TID 0000.0001)     ;
(PID.TID 0000.0001) useCDscheme =  /* CD scheme on/off flag */
(PID.TID 0000.0001)                   F
(PID.TID 0000.0001)     ;
(PID.TID 0000.0001) useJamartWetPoints= /* Coriolis WetPoints method flag */
(PID.TID 0000.0001)                   F
(PID.TID 0000.0001)     ;
(PID.TID 0000.0001) useJamartMomAdv= /* V.I. Non-linear terms Jamart flag */
(PID.TID 0000.0001)                   F
(PID.TID 0000.0001)     ;
(PID.TID 0000.0001) useAbsVorticity= /* Work with f+zeta in Coriolis */
(PID.TID 0000.0001)                   F
(PID.TID 0000.0001)     ;
(PID.TID 0000.0001) selectVortScheme= /* Scheme selector for Vorticity-Term */
(PID.TID 0000.0001)                       1
(PID.TID 0000.0001)    = 0 : enstrophy (Shallow-Water Eq.) conserving scheme by Sadourny, JAS 75
(PID.TID 0000.0001)    = 1 : same as 0 with modified hFac
(PID.TID 0000.0001)    = 2 : energy conserving scheme (used by Sadourny in JAS 75 paper)
(PID.TID 0000.0001)    = 3 : energy (general) and enstrophy (2D, nonDiv.) conserving scheme
(PID.TID 0000.0001)          from Sadourny (Burridge & Haseler, ECMWF Rep.4, 1977)
(PID.TID 0000.0001)     ;
(PID.TID 0000.0001) upwindVorticity= /* Upwind bias vorticity flag */
(PID.TID 0000.0001)                   F
(PID.TID 0000.0001)     ;
(PID.TID 0000.0001) highOrderVorticity= /* High order interp. of vort. flag */
(PID.TID 0000.0001)                   F
(PID.TID 0000.0001)     ;
(PID.TID 0000.0001) upwindShear= /* Upwind vertical Shear advection flag */
(PID.TID 0000.0001)                   F
(PID.TID 0000.0001)     ;
(PID.TID 0000.0001) selectKEscheme= /* Kinetic Energy scheme selector */
(PID.TID 0000.0001)                       0
(PID.TID 0000.0001)     ;
(PID.TID 0000.0001) momForcing =  /* Momentum forcing on/off flag */
(PID.TID 0000.0001)                   T
(PID.TID 0000.0001)     ;
(PID.TID 0000.0001) momPressureForcing =  /* Momentum pressure term on/off flag */
(PID.TID 0000.0001)                   T
(PID.TID 0000.0001)     ;
(PID.TID 0000.0001) implicitIntGravWave= /* Implicit Internal Gravity Wave flag */
(PID.TID 0000.0001)                   F
(PID.TID 0000.0001)     ;
(PID.TID 0000.0001) staggerTimeStep =   /* Stagger time stepping on/off flag */
(PID.TID 0000.0001)                   T
(PID.TID 0000.0001)     ;
(PID.TID 0000.0001) multiDimAdvection =   /* enable/disable Multi-Dim Advection */
(PID.TID 0000.0001)                   T
(PID.TID 0000.0001)     ;
(PID.TID 0000.0001) useMultiDimAdvec =   /* Multi-Dim Advection is/is-not used */
(PID.TID 0000.0001)                   F
(PID.TID 0000.0001)     ;
(PID.TID 0000.0001) implicitDiffusion =/* Implicit Diffusion on/off flag */
(PID.TID 0000.0001)                   F
(PID.TID 0000.0001)     ;
(PID.TID 0000.0001) tempStepping =  /* Temperature equation on/off flag */
(PID.TID 0000.0001)                   T
(PID.TID 0000.0001)     ;
(PID.TID 0000.0001) tempAdvection=  /* Temperature advection on/off flag */
(PID.TID 0000.0001)                   T
(PID.TID 0000.0001)     ;
(PID.TID 0000.0001) tempImplVertAdv =/* Temp. implicit vert. advection on/off */
(PID.TID 0000.0001)                   F
(PID.TID 0000.0001)     ;
(PID.TID 0000.0001) tempForcing  =  /* Temperature forcing on/off flag */
(PID.TID 0000.0001)                   T
(PID.TID 0000.0001)     ;
(PID.TID 0000.0001) tempIsActiveTr = /* Temp. is a dynamically Active Tracer */
(PID.TID 0000.0001)                   T
(PID.TID 0000.0001)     ;
(PID.TID 0000.0001) saltStepping =  /* Salinity equation on/off flag */
(PID.TID 0000.0001)                   T
(PID.TID 0000.0001)     ;
(PID.TID 0000.0001) saltAdvection=  /* Salinity advection on/off flag */
(PID.TID 0000.0001)                   T
(PID.TID 0000.0001)     ;
(PID.TID 0000.0001) saltImplVertAdv =/* Sali. implicit vert. advection on/off */
(PID.TID 0000.0001)                   F
(PID.TID 0000.0001)     ;
(PID.TID 0000.0001) saltForcing  =  /* Salinity forcing on/off flag */
(PID.TID 0000.0001)                   T
(PID.TID 0000.0001)     ;
(PID.TID 0000.0001) saltIsActiveTr = /* Salt  is a dynamically Active Tracer */
(PID.TID 0000.0001)                   T
(PID.TID 0000.0001)     ;
(PID.TID 0000.0001)  readBinaryPrec = /* Precision used for reading binary files */
(PID.TID 0000.0001)                      64
(PID.TID 0000.0001)     ;
(PID.TID 0000.0001) writeBinaryPrec = /* Precision used for writing binary files */
(PID.TID 0000.0001)                      64
(PID.TID 0000.0001)     ;
(PID.TID 0000.0001)  globalFiles = /* write "global" (=not per tile) files */
(PID.TID 0000.0001)                   F
(PID.TID 0000.0001)     ;
(PID.TID 0000.0001)  useSingleCpuIO = /* only master MPI process does I/O */
(PID.TID 0000.0001)                   F
(PID.TID 0000.0001)     ;
(PID.TID 0000.0001)  debugMode  =  /* Debug Mode on/off flag */
(PID.TID 0000.0001)                   F
(PID.TID 0000.0001)     ;
(PID.TID 0000.0001)    debLevA  =  /* 1rst level of debugging */
(PID.TID 0000.0001)                       1
(PID.TID 0000.0001)     ;
(PID.TID 0000.0001)    debLevB  =  /* 2nd  level of debugging */
(PID.TID 0000.0001)                       2
(PID.TID 0000.0001)     ;
(PID.TID 0000.0001)  debugLevel =  /* select debugging level */
(PID.TID 0000.0001)                       1
(PID.TID 0000.0001)     ;
(PID.TID 0000.0001) //
(PID.TID 0000.0001) // Elliptic solver(s) paramters ( PARM02 in namelist )
(PID.TID 0000.0001) //
(PID.TID 0000.0001) cg2dMaxIters =   /* Upper limit on 2d con. grad iterations  */
(PID.TID 0000.0001)                     200
(PID.TID 0000.0001)     ;
(PID.TID 0000.0001) cg2dChkResFreq =   /* 2d con. grad convergence test frequency */
(PID.TID 0000.0001)                       1
(PID.TID 0000.0001)     ;
(PID.TID 0000.0001) cg2dTargetResidual =   /* 2d con. grad target residual  */
(PID.TID 0000.0001)                 1.000000000000000E-12
(PID.TID 0000.0001)     ;
(PID.TID 0000.0001) cg2dTargetResWunit =   /* CG2d target residual [W units] */
(PID.TID 0000.0001)                -1.000000000000000E+00
(PID.TID 0000.0001)     ;
(PID.TID 0000.0001) cg2dPreCondFreq =   /* Freq. for updating cg2d preconditioner */
(PID.TID 0000.0001)                       1
(PID.TID 0000.0001)     ;
(PID.TID 0000.0001) //
(PID.TID 0000.0001) // Time stepping paramters ( PARM03 in namelist )
(PID.TID 0000.0001) //
(PID.TID 0000.0001) deltaTmom =   /* Momentum equation timestep ( s ) */
(PID.TID 0000.0001)                 6.000000000000000E+02
(PID.TID 0000.0001)     ;
(PID.TID 0000.0001) deltaTfreesurf = /* FreeSurface equation timestep ( s ) */
(PID.TID 0000.0001)                 6.000000000000000E+02
(PID.TID 0000.0001)     ;
(PID.TID 0000.0001) dTtracerLev =  /* Tracer equation timestep ( s ) */
(PID.TID 0000.0001)     5 @  6.000000000000000E+02              /* K =  1:  5 */
(PID.TID 0000.0001)     ;
(PID.TID 0000.0001) deltaTClock  =   /* Model clock timestep ( s ) */
(PID.TID 0000.0001)                 6.000000000000000E+02
(PID.TID 0000.0001)     ;
(PID.TID 0000.0001) cAdjFreq =   /* Convective adjustment interval ( s ) */
(PID.TID 0000.0001)                 0.000000000000000E+00
(PID.TID 0000.0001)     ;
(PID.TID 0000.0001) momForcingOutAB = /* =1: take Momentum Forcing out of Adams-Bash. stepping */
(PID.TID 0000.0001)                       0
(PID.TID 0000.0001)     ;
(PID.TID 0000.0001) tracForcingOutAB = /* =1: take T,S,pTr Forcing out of Adams-Bash. stepping */
(PID.TID 0000.0001)                       0
(PID.TID 0000.0001)     ;
(PID.TID 0000.0001) momDissip_In_AB = /* put Dissipation Tendency in Adams-Bash. stepping */
(PID.TID 0000.0001)                   T
(PID.TID 0000.0001)     ;
(PID.TID 0000.0001) doAB_onGtGs = /* apply AB on Tendencies (rather than on T,S)*/
(PID.TID 0000.0001)                   T
(PID.TID 0000.0001)     ;
(PID.TID 0000.0001) abEps =   /* Adams-Bashforth-2 stabilizing weight */
(PID.TID 0000.0001)                 1.000000000000000E-02
(PID.TID 0000.0001)     ;
(PID.TID 0000.0001) alph_AB =   /* Adams-Bashforth-3 primary factor */
(PID.TID 0000.0001)                 6.000000000000000E-01
(PID.TID 0000.0001)     ;
(PID.TID 0000.0001) beta_AB =   /* Adams-Bashforth-3 secondary factor */
(PID.TID 0000.0001)                 0.000000000000000E+00
(PID.TID 0000.0001)     ;
(PID.TID 0000.0001) startFromPickupAB2= /* start from AB-2 pickup */
(PID.TID 0000.0001)                   F
(PID.TID 0000.0001)     ;
(PID.TID 0000.0001) pickupStrictlyMatch= /* stop if pickup do not strictly match */
(PID.TID 0000.0001)                   T
(PID.TID 0000.0001)     ;
(PID.TID 0000.0001) nIter0 =   /* Run starting timestep number  */
(PID.TID 0000.0001)                       0
(PID.TID 0000.0001)     ;
(PID.TID 0000.0001) nTimeSteps =   /* Number of timesteps */
(PID.TID 0000.0001)                      20
(PID.TID 0000.0001)     ;
(PID.TID 0000.0001) baseTime =   /* Model base time ( s ). */
(PID.TID 0000.0001)                 0.000000000000000E+00
(PID.TID 0000.0001)     ;
(PID.TID 0000.0001) startTime =   /* Run start time ( s ). */
(PID.TID 0000.0001)                 0.000000000000000E+00
(PID.TID 0000.0001)     ;
(PID.TID 0000.0001) endTime =   /* Integration ending time ( s ). */
(PID.TID 0000.0001)                 1.200000000000000E+04
(PID.TID 0000.0001)     ;
(PID.TID 0000.0001) pChkPtFreq =   /* Permanent restart/checkpoint file interval ( s ). */
(PID.TID 0000.0001)                 2.592000000000000E+06
(PID.TID 0000.0001)     ;
(PID.TID 0000.0001) chkPtFreq =   /* Rolling restart/checkpoint file interval ( s ). */
(PID.TID 0000.0001)                 0.000000000000000E+00
(PID.TID 0000.0001)     ;
(PID.TID 0000.0001) pickup_write_mdsio =   /* Model IO flag. */
(PID.TID 0000.0001)                   T
(PID.TID 0000.0001)     ;
(PID.TID 0000.0001) pickup_read_mdsio =   /* Model IO flag. */
(PID.TID 0000.0001)                   T
(PID.TID 0000.0001)     ;
(PID.TID 0000.0001) pickup_write_mnc =   /* Model IO flag. */
(PID.TID 0000.0001)                   F
(PID.TID 0000.0001)     ;
(PID.TID 0000.0001) pickup_read_mnc =   /* Model IO flag. */
(PID.TID 0000.0001)                   F
(PID.TID 0000.0001)     ;
(PID.TID 0000.0001) pickup_write_immed =   /* Model IO flag. */
(PID.TID 0000.0001)                   F
(PID.TID 0000.0001)     ;
(PID.TID 0000.0001) writePickupAtEnd =   /* Model IO flag. */
(PID.TID 0000.0001)                   T
(PID.TID 0000.0001)     ;
(PID.TID 0000.0001) dumpFreq =   /* Model state write out interval ( s ). */
(PID.TID 0000.0001)                 2.160000000000000E+04
(PID.TID 0000.0001)     ;
(PID.TID 0000.0001) dumpInitAndLast= /* write out Initial & Last iter. model state */
(PID.TID 0000.0001)                   T
(PID.TID 0000.0001)     ;
(PID.TID 0000.0001) snapshot_mdsio =   /* Model IO flag. */
(PID.TID 0000.0001)                   F
(PID.TID 0000.0001)     ;
(PID.TID 0000.0001) snapshot_mnc =   /* Model IO flag. */
(PID.TID 0000.0001)                   T
(PID.TID 0000.0001)     ;
(PID.TID 0000.0001) monitorFreq =   /* Monitor output interval ( s ). */
(PID.TID 0000.0001)                 1.000000000000000E+00
(PID.TID 0000.0001)     ;
(PID.TID 0000.0001) monitorSelect = /* select group of variables to monitor */
(PID.TID 0000.0001)                       2
(PID.TID 0000.0001)     ;
(PID.TID 0000.0001) monitor_stdio =   /* Model IO flag. */
(PID.TID 0000.0001)                   T
(PID.TID 0000.0001)     ;
(PID.TID 0000.0001) monitor_mnc =   /* Model IO flag. */
(PID.TID 0000.0001)                   F
(PID.TID 0000.0001)     ;
(PID.TID 0000.0001) externForcingPeriod =   /* forcing period (s) */
(PID.TID 0000.0001)                 0.000000000000000E+00
(PID.TID 0000.0001)     ;
(PID.TID 0000.0001) externForcingCycle =   /* period of the cyle (s). */
(PID.TID 0000.0001)                 0.000000000000000E+00
(PID.TID 0000.0001)     ;
(PID.TID 0000.0001) tauThetaClimRelax =   /* relaxation time scale (s) */
(PID.TID 0000.0001)                 0.000000000000000E+00
(PID.TID 0000.0001)     ;
(PID.TID 0000.0001) tauSaltClimRelax =   /* relaxation time scale (s) */
(PID.TID 0000.0001)                 0.000000000000000E+00
(PID.TID 0000.0001)     ;
(PID.TID 0000.0001) latBandClimRelax =   /* max. Lat. where relaxation */
(PID.TID 0000.0001)                 1.800000000000000E+02
(PID.TID 0000.0001)     ;
(PID.TID 0000.0001) //
(PID.TID 0000.0001) // Gridding paramters ( PARM04 in namelist )
(PID.TID 0000.0001) //
(PID.TID 0000.0001) usingCartesianGrid = /* Cartesian coordinates flag ( True/False ) */
(PID.TID 0000.0001)                   F
(PID.TID 0000.0001)     ;
(PID.TID 0000.0001) usingCylindricalGrid = /* Cylindrical coordinates flag ( True/False ) */
(PID.TID 0000.0001)                   F
(PID.TID 0000.0001)     ;
(PID.TID 0000.0001) usingSphericalPolarGrid = /* Spherical coordinates flag ( True/False ) */
(PID.TID 0000.0001)                   F
(PID.TID 0000.0001)     ;
(PID.TID 0000.0001) usingCurvilinearGrid = /* Curvilinear coordinates flag ( True/False ) */
(PID.TID 0000.0001)                   T
(PID.TID 0000.0001)     ;
(PID.TID 0000.0001) Ro_SeaLevel = /* r(1) ( units of r == Pa ) */
(PID.TID 0000.0001)                 1.000000000000000E+05
(PID.TID 0000.0001)     ;
(PID.TID 0000.0001) rkSign =   /* index orientation relative to vertical coordinate */
(PID.TID 0000.0001)                -1.000000000000000E+00
(PID.TID 0000.0001)     ;
(PID.TID 0000.0001) gravitySign = /* gravity orientation relative to vertical coordinate */
(PID.TID 0000.0001)                 1.000000000000000E+00
(PID.TID 0000.0001)     ;
(PID.TID 0000.0001) mass2rUnit = /* convert mass per unit area [kg/m2] to r-units [Pa] */
(PID.TID 0000.0001)                 9.810000000000000E+00
(PID.TID 0000.0001)     ;
(PID.TID 0000.0001) rUnit2mass = /* convert r-units [Pa] to mass per unit area [kg/m2] */
(PID.TID 0000.0001)                 1.019367991845056E-01
(PID.TID 0000.0001)     ;
(PID.TID 0000.0001) drC =   /* C spacing ( units of r ) */
(PID.TID 0000.0001)                 5.000000000000000E+03,      /* K =  1 */
(PID.TID 0000.0001)                 1.750000000000000E+04,      /* K =  2 */
(PID.TID 0000.0001)                 2.750000000000000E+04,      /* K =  3 */
(PID.TID 0000.0001)                 2.500000000000000E+04,      /* K =  4 */
(PID.TID 0000.0001)                 1.750000000000000E+04       /* K =  5 */
(PID.TID 0000.0001)     ;
(PID.TID 0000.0001) drF =   /* W spacing ( units of r ) */
(PID.TID 0000.0001)                 1.000000000000000E+04,      /* K =  1 */
(PID.TID 0000.0001)                 2.500000000000000E+04,      /* K =  2 */
(PID.TID 0000.0001)                 3.000000000000000E+04,      /* K =  3 */
(PID.TID 0000.0001)                 2.000000000000000E+04,      /* K =  4 */
(PID.TID 0000.0001)                 1.500000000000000E+04       /* K =  5 */
(PID.TID 0000.0001)     ;
(PID.TID 0000.0001) xgOrigin = /* X-axis origin of West  edge (cartesian: m, lat-lon: deg.) */
(PID.TID 0000.0001)                 0.000000000000000E+00
(PID.TID 0000.0001)     ;
(PID.TID 0000.0001) ygOrigin = /* Y-axis origin of South edge (cartesian: m, lat-lon: deg.) */
(PID.TID 0000.0001)                 0.000000000000000E+00
(PID.TID 0000.0001)     ;
(PID.TID 0000.0001) rSphere =  /* Radius ( ignored - cartesian, m - spherical ) */
(PID.TID 0000.0001)                 6.370000000000000E+06
(PID.TID 0000.0001)     ;
(PID.TID 0000.0001) deepAtmosphere = /* Deep/Shallow Atmosphere flag (True/False) */
(PID.TID 0000.0001)                   F
(PID.TID 0000.0001)     ;
(PID.TID 0000.0001) xC =  /* xC(:,1,:,1) : P-point X coord ( deg. or m if cartesian) */
(PID.TID 0000.0001)                -4.439521994760536E+01,      /* I =  1 */
(PID.TID 0000.0001)                -4.295641272275883E+01,      /* I =  2 */
(PID.TID 0000.0001)                -4.122055553388957E+01,      /* I =  3 */
(PID.TID 0000.0001)      . . .
(PID.TID 0000.0001)                 8.070819219728060E+01,      /* I = 46 */
(PID.TID 0000.0001)                 8.439652466417766E+01,      /* I = 47 */
(PID.TID 0000.0001)                 8.812739148696656E+01,      /* I = 48 */
(PID.TID 0000.0001)                 9.187260851303344E+01,      /* I = 49 */
(PID.TID 0000.0001)                 9.560347533582234E+01,      /* I = 50 */
(PID.TID 0000.0001)                 9.929180780271940E+01,      /* I = 51 */
(PID.TID 0000.0001)      . . .
(PID.TID 0000.0001)                 1.321863035748696E+02,      /* I = 94 */
(PID.TID 0000.0001)                 1.337919453120370E+02,      /* I = 95 */
(PID.TID 0000.0001)                 1.350000000000000E+02,      /* I = 96 */
(PID.TID 0000.0001)                 1.356047800523947E+02,      /* I = 97 */
(PID.TID 0000.0001)                 1.358367907661329E+02,      /* I = 98 */
(PID.TID 0000.0001)                 1.359720382181193E+02,      /* I = 99 */
(PID.TID 0000.0001)      . . .
(PID.TID 0000.0001)                -1.336511021209287E+02,      /* I =142 */
(PID.TID 0000.0001)                -1.336469399409420E+02,      /* I =143 */
(PID.TID 0000.0001)                -1.336449032499283E+02,      /* I =144 */
(PID.TID 0000.0001)                -1.336449032499283E+02,      /* I =145 */
(PID.TID 0000.0001)                -1.336469399409420E+02,      /* I =146 */
(PID.TID 0000.0001)                -1.336511021209287E+02,      /* I =147 */
(PID.TID 0000.0001)      . . .
(PID.TID 0000.0001)                 1.378136964251304E+02,      /* I =190 */
(PID.TID 0000.0001)                 1.362080546879630E+02,      /* I =191 */
(PID.TID 0000.0001)                 1.350000000000000E+02       /* I =192 */
(PID.TID 0000.0001)     ;
(PID.TID 0000.0001) yC =  /* yC(1,:,1,:) : P-point Y coord ( deg. or m if cartesian) */
(PID.TID 0000.0001)                -3.497677942598243E+01,      /* J =  1 */
(PID.TID 0000.0001)                -3.374005967394886E+01,      /* J =  2 */
(PID.TID 0000.0001)                -3.220655175667454E+01,      /* J =  3 */
(PID.TID 0000.0001)                -3.045756348838641E+01,      /* J =  4 */
(PID.TID 0000.0001)                -2.853728129852918E+01,      /* J =  5 */
(PID.TID 0000.0001)                -2.647426640173173E+01,      /* J =  6 */
(PID.TID 0000.0001)                -2.428936657094636E+01,      /* J =  7 */
(PID.TID 0000.0001)                -2.199915808312262E+01,      /* J =  8 */
(PID.TID 0000.0001)                -1.961768597440146E+01,      /* J =  9 */
(PID.TID 0000.0001)                -1.715743888281371E+01,      /* J = 10 */
(PID.TID 0000.0001)                -1.462993396899330E+01,      /* J = 11 */
(PID.TID 0000.0001)                -1.204608340464756E+01,      /* J = 12 */
(PID.TID 0000.0001)                -9.416429130284818E+00,      /* J = 13 */
(PID.TID 0000.0001)                -6.751293662992216E+00,      /* J = 14 */
(PID.TID 0000.0001)                -4.060875511835959E+00,      /* J = 15 */
(PID.TID 0000.0001)                -1.355307764409121E+00,      /* J = 16 */
(PID.TID 0000.0001)                 1.355307764409121E+00,      /* J = 17 */
(PID.TID 0000.0001)                 4.060875511835959E+00,      /* J = 18 */
(PID.TID 0000.0001)                 6.751293662992216E+00,      /* J = 19 */
(PID.TID 0000.0001)                 9.416429130284818E+00,      /* J = 20 */
(PID.TID 0000.0001)                 1.204608340464756E+01,      /* J = 21 */
(PID.TID 0000.0001)                 1.462993396899330E+01,      /* J = 22 */
(PID.TID 0000.0001)                 1.715743888281371E+01,      /* J = 23 */
(PID.TID 0000.0001)                 1.961768597440146E+01,      /* J = 24 */
(PID.TID 0000.0001)                 2.199915808312262E+01,      /* J = 25 */
(PID.TID 0000.0001)                 2.428936657094636E+01,      /* J = 26 */
(PID.TID 0000.0001)                 2.647426640173173E+01,      /* J = 27 */
(PID.TID 0000.0001)                 2.853728129852918E+01,      /* J = 28 */
(PID.TID 0000.0001)                 3.045756348838641E+01,      /* J = 29 */
(PID.TID 0000.0001)                 3.220655175667454E+01,      /* J = 30 */
(PID.TID 0000.0001)                 3.374005967394886E+01,      /* J = 31 */
(PID.TID 0000.0001)                 3.497677942598243E+01       /* J = 32 */
(PID.TID 0000.0001)     ;
(PID.TID 0000.0001) rcoord = /* P-point R coordinate (  units of r ) */
(PID.TID 0000.0001)                 9.500000000000000E+04,      /* K =  1 */
(PID.TID 0000.0001)                 7.750000000000000E+04,      /* K =  2 */
(PID.TID 0000.0001)                 5.000000000000000E+04,      /* K =  3 */
(PID.TID 0000.0001)                 2.500000000000000E+04,      /* K =  4 */
(PID.TID 0000.0001)                 7.500000000000000E+03       /* K =  5 */
(PID.TID 0000.0001)     ;
(PID.TID 0000.0001) rF =   /* W-Interf. R coordinate (  units of r ) */
(PID.TID 0000.0001)                 1.000000000000000E+05,      /* K =  1 */
(PID.TID 0000.0001)                 9.000000000000000E+04,      /* K =  2 */
(PID.TID 0000.0001)                 6.500000000000000E+04,      /* K =  3 */
(PID.TID 0000.0001)                 3.500000000000000E+04,      /* K =  4 */
(PID.TID 0000.0001)                 1.500000000000000E+04,      /* K =  5 */
(PID.TID 0000.0001)                 0.000000000000000E+00       /* K =  6 */
(PID.TID 0000.0001)     ;
(PID.TID 0000.0001) deepFacC = /* deep-model grid factor @ cell-Center (-) */
(PID.TID 0000.0001)     5 @  1.000000000000000E+00              /* K =  1:  5 */
(PID.TID 0000.0001)     ;
(PID.TID 0000.0001) deepFacF = /* deep-model grid factor @ W-Interface (-) */
(PID.TID 0000.0001)     6 @  1.000000000000000E+00              /* K =  1:  6 */
(PID.TID 0000.0001)     ;
(PID.TID 0000.0001) rVel2wUnit = /* convert units: rVel -> wSpeed (=1 if z-coord)*/
(PID.TID 0000.0001)                 8.219407485073540E-02,      /* K =  1 */
(PID.TID 0000.0001)                 8.991615305048765E-02,      /* K =  2 */
(PID.TID 0000.0001)                 1.186367297822725E-01,      /* K =  3 */
(PID.TID 0000.0001)                 1.976239153544120E-01,      /* K =  4 */
(PID.TID 0000.0001)                 4.329591048178627E-01,      /* K =  5 */
(PID.TID 0000.0001)                 1.000000000000000E+00       /* K =  6 */
(PID.TID 0000.0001)     ;
(PID.TID 0000.0001) wUnit2rVel = /* convert units: wSpeed -> rVel (=1 if z-coord)*/
(PID.TID 0000.0001)                 1.216632709615629E+01,      /* K =  1 */
(PID.TID 0000.0001)                 1.112147223912597E+01,      /* K =  2 */
(PID.TID 0000.0001)                 8.429092759343972E+00,      /* K =  3 */
(PID.TID 0000.0001)                 5.060116323505857E+00,      /* K =  4 */
(PID.TID 0000.0001)                 2.309686963207946E+00,      /* K =  5 */
(PID.TID 0000.0001)                 1.000000000000000E+00       /* K =  6 */
(PID.TID 0000.0001)     ;
(PID.TID 0000.0001) dBdrRef = /* Vertical gradient of reference boyancy [(m/s/r)^2)] */
(PID.TID 0000.0001)                 0.000000000000000E+00,      /* K =  1 */
(PID.TID 0000.0001)                 1.502918135245577E-06,      /* K =  2 */
(PID.TID 0000.0001)                 2.596073596819273E-06,      /* K =  3 */
(PID.TID 0000.0001)                 5.726269648737992E-06,      /* K =  4 */
(PID.TID 0000.0001)                 6.487949270710153E-05       /* K =  5 */
(PID.TID 0000.0001)     ;
(PID.TID 0000.0001) rotateGrid = /* use rotated grid ( True/False ) */
(PID.TID 0000.0001)                   F
(PID.TID 0000.0001)     ;
(PID.TID 0000.0001) phiEuler = /* Euler angle, rotation about original z-coordinate [rad] */
(PID.TID 0000.0001)                 0.000000000000000E+00
(PID.TID 0000.0001)     ;
(PID.TID 0000.0001) thetaEuler = /* Euler angle, rotation about new x-coordinate [rad] */
(PID.TID 0000.0001)                 0.000000000000000E+00
(PID.TID 0000.0001)     ;
(PID.TID 0000.0001) psiEuler = /* Euler angle, rotation about new z-coordinate [rad] */
(PID.TID 0000.0001)                 0.000000000000000E+00
(PID.TID 0000.0001)     ;
(PID.TID 0000.0001) dxF =  /* dxF(:,1,:,1) ( units: m ) */
(PID.TID 0000.0001)                 1.202082051331828E+05,      /* I =  1 */
(PID.TID 0000.0001)                 1.563594089971120E+05,      /* I =  2 */
(PID.TID 0000.0001)                 1.835530058121492E+05,      /* I =  3 */
(PID.TID 0000.0001)      . . .
(PID.TID 0000.0001)                 2.978501920522794E+05,      /* I = 46 */
(PID.TID 0000.0001)                 3.000967749619962E+05,      /* I = 47 */
(PID.TID 0000.0001)                 3.012190981969055E+05,      /* I = 48 */
(PID.TID 0000.0001)                 3.012190981969055E+05,      /* I = 49 */
(PID.TID 0000.0001)                 3.000967749619962E+05,      /* I = 50 */
(PID.TID 0000.0001)                 2.978501920522794E+05,      /* I = 51 */
(PID.TID 0000.0001)      . . .
(PID.TID 0000.0001)                 1.835530058121492E+05,      /* I = 94 */
(PID.TID 0000.0001)                 1.563594089971120E+05,      /* I = 95 */
(PID.TID 0000.0001)                 1.202082051331828E+05,      /* I = 96 */
(PID.TID 0000.0001)                 1.202082051331828E+05,      /* I = 97 */
(PID.TID 0000.0001)                 1.563594089971120E+05,      /* I = 98 */
(PID.TID 0000.0001)                 1.835530058121492E+05,      /* I = 99 */
(PID.TID 0000.0001)      . . .
(PID.TID 0000.0001)                 2.978501920522794E+05,      /* I =142 */
(PID.TID 0000.0001)                 3.000967749619962E+05,      /* I =143 */
(PID.TID 0000.0001)                 3.012190981969055E+05,      /* I =144 */
(PID.TID 0000.0001)                 3.012190981969055E+05,      /* I =145 */
(PID.TID 0000.0001)                 3.000967749619962E+05,      /* I =146 */
(PID.TID 0000.0001)                 2.978501920522794E+05,      /* I =147 */
(PID.TID 0000.0001)      . . .
(PID.TID 0000.0001)                 1.835530058121492E+05,      /* I =190 */
(PID.TID 0000.0001)                 1.563594089971120E+05,      /* I =191 */
(PID.TID 0000.0001)                 1.202082051331828E+05       /* I =192 */
(PID.TID 0000.0001)     ;
(PID.TID 0000.0001) dxF =  /* dxF(1,:,1,:) ( units: m ) */
(PID.TID 0000.0001)                 1.202082051331828E+05,      /* J =  1 */
(PID.TID 0000.0001)                 1.572908084538706E+05,      /* J =  2 */
(PID.TID 0000.0001)                 1.840412227747703E+05,      /* J =  3 */
(PID.TID 0000.0001)                 2.048868197919576E+05,      /* J =  4 */
(PID.TID 0000.0001)                 2.220405216043041E+05,      /* J =  5 */
(PID.TID 0000.0001)                 2.365892017348392E+05,      /* J =  6 */
(PID.TID 0000.0001)                 2.491250781852558E+05,      /* J =  7 */
(PID.TID 0000.0001)                 2.599949918261881E+05,      /* J =  8 */
(PID.TID 0000.0001)                 2.694110134598581E+05,      /* J =  9 */
(PID.TID 0000.0001)                 2.775055554645015E+05,      /* J = 10 */
(PID.TID 0000.0001)                 2.843615645344775E+05,      /* J = 11 */
(PID.TID 0000.0001)                 2.900303768613599E+05,      /* J = 12 */
(PID.TID 0000.0001)                 2.945429307892709E+05,      /* J = 13 */
(PID.TID 0000.0001)                 2.979171143158405E+05,      /* J = 14 */
(PID.TID 0000.0001)                 3.001626787528886E+05,      /* J = 15 */
(PID.TID 0000.0001)     2 @  3.012844832048790E+05,             /* J = 16: 17 */
(PID.TID 0000.0001)                 3.001626787528886E+05,      /* J = 18 */
(PID.TID 0000.0001)                 2.979171143158405E+05,      /* J = 19 */
(PID.TID 0000.0001)                 2.945429307892709E+05,      /* J = 20 */
(PID.TID 0000.0001)                 2.900303768613599E+05,      /* J = 21 */
(PID.TID 0000.0001)                 2.843615645344775E+05,      /* J = 22 */
(PID.TID 0000.0001)                 2.775055554645015E+05,      /* J = 23 */
(PID.TID 0000.0001)                 2.694110134598581E+05,      /* J = 24 */
(PID.TID 0000.0001)                 2.599949918261881E+05,      /* J = 25 */
(PID.TID 0000.0001)                 2.491250781852558E+05,      /* J = 26 */
(PID.TID 0000.0001)                 2.365892017348392E+05,      /* J = 27 */
(PID.TID 0000.0001)                 2.220405216043041E+05,      /* J = 28 */
(PID.TID 0000.0001)                 2.048868197919576E+05,      /* J = 29 */
(PID.TID 0000.0001)                 1.840412227747703E+05,      /* J = 30 */
(PID.TID 0000.0001)                 1.572908084538706E+05,      /* J = 31 */
(PID.TID 0000.0001)                 1.202082051331828E+05       /* J = 32 */
(PID.TID 0000.0001)     ;
(PID.TID 0000.0001) dyF =  /* dyF(:,1,:,1) ( units: m ) */
(PID.TID 0000.0001)                 1.202082051331828E+05,      /* I =  1 */
(PID.TID 0000.0001)                 1.572908084538706E+05,      /* I =  2 */
(PID.TID 0000.0001)                 1.840412227747703E+05,      /* I =  3 */
(PID.TID 0000.0001)      . . .
(PID.TID 0000.0001)                 2.979171143158405E+05,      /* I = 46 */
(PID.TID 0000.0001)                 3.001626787528886E+05,      /* I = 47 */
(PID.TID 0000.0001)                 3.012844832048790E+05,      /* I = 48 */
(PID.TID 0000.0001)                 3.012844832048790E+05,      /* I = 49 */
(PID.TID 0000.0001)                 3.001626787528886E+05,      /* I = 50 */
(PID.TID 0000.0001)                 2.979171143158405E+05,      /* I = 51 */
(PID.TID 0000.0001)      . . .
(PID.TID 0000.0001)                 1.840412227747703E+05,      /* I = 94 */
(PID.TID 0000.0001)                 1.572908084538706E+05,      /* I = 95 */
(PID.TID 0000.0001)                 1.202082051331828E+05,      /* I = 96 */
(PID.TID 0000.0001)                 1.202082051331828E+05,      /* I = 97 */
(PID.TID 0000.0001)                 1.572908084538706E+05,      /* I = 98 */
(PID.TID 0000.0001)                 1.840412227747703E+05,      /* I = 99 */
(PID.TID 0000.0001)      . . .
(PID.TID 0000.0001)                 2.979171143158405E+05,      /* I =142 */
(PID.TID 0000.0001)                 3.001626787528886E+05,      /* I =143 */
(PID.TID 0000.0001)                 3.012844832048790E+05,      /* I =144 */
(PID.TID 0000.0001)                 3.012844832048790E+05,      /* I =145 */
(PID.TID 0000.0001)                 3.001626787528886E+05,      /* I =146 */
(PID.TID 0000.0001)                 2.979171143158405E+05,      /* I =147 */
(PID.TID 0000.0001)      . . .
(PID.TID 0000.0001)                 1.840412227747703E+05,      /* I =190 */
(PID.TID 0000.0001)                 1.572908084538706E+05,      /* I =191 */
(PID.TID 0000.0001)                 1.202082051331828E+05       /* I =192 */
(PID.TID 0000.0001)     ;
(PID.TID 0000.0001) dyF =  /* dyF(1,:,1,:) ( units: m ) */
(PID.TID 0000.0001)                 1.202082051331828E+05,      /* J =  1 */
(PID.TID 0000.0001)                 1.563594089971120E+05,      /* J =  2 */
(PID.TID 0000.0001)                 1.835530058121492E+05,      /* J =  3 */
(PID.TID 0000.0001)                 2.045883481718707E+05,      /* J =  4 */
(PID.TID 0000.0001)                 2.218350349844185E+05,      /* J =  5 */
(PID.TID 0000.0001)                 2.364352994647058E+05,      /* J =  6 */
(PID.TID 0000.0001)                 2.490022710862746E+05,      /* J =  7 */
(PID.TID 0000.0001)                 2.598919724358304E+05,      /* J =  8 */
(PID.TID 0000.0001)                 2.693210245495156E+05,      /* J =  9 */
(PID.TID 0000.0001)                 2.774243179696503E+05,      /* J = 10 */
(PID.TID 0000.0001)                 2.842862532064524E+05,      /* J = 11 */
(PID.TID 0000.0001)                 2.899590699694043E+05,      /* J = 12 */
(PID.TID 0000.0001)                 2.944742915095688E+05,      /* J = 13 */
(PID.TID 0000.0001)                 2.978501920522794E+05,      /* J = 14 */
(PID.TID 0000.0001)                 3.000967749619962E+05,      /* J = 15 */
(PID.TID 0000.0001)     2 @  3.012190981969055E+05,             /* J = 16: 17 */
(PID.TID 0000.0001)                 3.000967749619962E+05,      /* J = 18 */
(PID.TID 0000.0001)                 2.978501920522794E+05,      /* J = 19 */
(PID.TID 0000.0001)                 2.944742915095688E+05,      /* J = 20 */
(PID.TID 0000.0001)                 2.899590699694043E+05,      /* J = 21 */
(PID.TID 0000.0001)                 2.842862532064524E+05,      /* J = 22 */
(PID.TID 0000.0001)                 2.774243179696503E+05,      /* J = 23 */
(PID.TID 0000.0001)                 2.693210245495156E+05,      /* J = 24 */
(PID.TID 0000.0001)                 2.598919724358304E+05,      /* J = 25 */
(PID.TID 0000.0001)                 2.490022710862746E+05,      /* J = 26 */
(PID.TID 0000.0001)                 2.364352994647058E+05,      /* J = 27 */
(PID.TID 0000.0001)                 2.218350349844185E+05,      /* J = 28 */
(PID.TID 0000.0001)                 2.045883481718707E+05,      /* J = 29 */
(PID.TID 0000.0001)                 1.835530058121492E+05,      /* J = 30 */
(PID.TID 0000.0001)                 1.563594089971120E+05,      /* J = 31 */
(PID.TID 0000.0001)                 1.202082051331828E+05       /* J = 32 */
(PID.TID 0000.0001)     ;
(PID.TID 0000.0001) dxG =  /* dxG(:,1,:,1) ( units: m ) */
(PID.TID 0000.0001)                 1.009837800879055E+05,      /* I =  1 */
(PID.TID 0000.0001)                 1.534505834330338E+05,      /* I =  2 */
(PID.TID 0000.0001)                 1.823321598773926E+05,      /* I =  3 */
(PID.TID 0000.0001)      . . .
(PID.TID 0000.0001)                 2.977867909042096E+05,      /* I = 46 */
(PID.TID 0000.0001)                 3.000380090330854E+05,      /* I = 47 */
(PID.TID 0000.0001)                 3.011625828699101E+05,      /* I = 48 */
(PID.TID 0000.0001)                 3.011625828699101E+05,      /* I = 49 */
(PID.TID 0000.0001)                 3.000380090330854E+05,      /* I = 50 */
(PID.TID 0000.0001)                 2.977867909042096E+05,      /* I = 51 */
(PID.TID 0000.0001)      . . .
(PID.TID 0000.0001)                 1.823321598773926E+05,      /* I = 94 */
(PID.TID 0000.0001)                 1.534505834330338E+05,      /* I = 95 */
(PID.TID 0000.0001)                 1.009837800879055E+05,      /* I = 96 */
(PID.TID 0000.0001)                 1.009837800879055E+05,      /* I = 97 */
(PID.TID 0000.0001)                 1.534505834330338E+05,      /* I = 98 */
(PID.TID 0000.0001)                 1.823321598773926E+05,      /* I = 99 */
(PID.TID 0000.0001)      . . .
(PID.TID 0000.0001)                 2.977867909042096E+05,      /* I =142 */
(PID.TID 0000.0001)                 3.000380090330854E+05,      /* I =143 */
(PID.TID 0000.0001)                 3.011625828699101E+05,      /* I =144 */
(PID.TID 0000.0001)                 3.011625828699101E+05,      /* I =145 */
(PID.TID 0000.0001)                 3.000380090330854E+05,      /* I =146 */
(PID.TID 0000.0001)                 2.977867909042096E+05,      /* I =147 */
(PID.TID 0000.0001)      . . .
(PID.TID 0000.0001)                 1.823321598773926E+05,      /* I =190 */
(PID.TID 0000.0001)                 1.534505834330338E+05,      /* I =191 */
(PID.TID 0000.0001)                 1.009837800879055E+05       /* I =192 */
(PID.TID 0000.0001)     ;
(PID.TID 0000.0001) dxG =  /* dxG(1,:,1,:) ( units: m ) */
(PID.TID 0000.0001)                 1.009837800879055E+05,      /* J =  1 */
(PID.TID 0000.0001)                 1.403701524205398E+05,      /* J =  2 */
(PID.TID 0000.0001)                 1.716197227386011E+05,      /* J =  3 */
(PID.TID 0000.0001)                 1.950254041626018E+05,      /* J =  4 */
(PID.TID 0000.0001)                 2.138410773065497E+05,      /* J =  5 */
(PID.TID 0000.0001)                 2.295958105911512E+05,      /* J =  6 */
(PID.TID 0000.0001)                 2.430829951739083E+05,      /* J =  7 */
(PID.TID 0000.0001)                 2.547526806712889E+05,      /* J =  8 */
(PID.TID 0000.0001)                 2.648750305193301E+05,      /* J =  9 */
(PID.TID 0000.0001)                 2.736173771018112E+05,      /* J = 10 */
(PID.TID 0000.0001)                 2.810845823202647E+05,      /* J = 11 */
(PID.TID 0000.0001)                 2.873420591008078E+05,      /* J = 12 */
(PID.TID 0000.0001)                 2.924298293668651E+05,      /* J = 13 */
(PID.TID 0000.0001)                 2.963715635865306E+05,      /* J = 14 */
(PID.TID 0000.0001)                 2.991805843171258E+05,      /* J = 15 */
(PID.TID 0000.0001)                 3.008638765647886E+05,      /* J = 16 */
(PID.TID 0000.0001)                 3.014246674484008E+05,      /* J = 17 */
(PID.TID 0000.0001)                 3.008638765647886E+05,      /* J = 18 */
(PID.TID 0000.0001)                 2.991805843171258E+05,      /* J = 19 */
(PID.TID 0000.0001)                 2.963715635865306E+05,      /* J = 20 */
(PID.TID 0000.0001)                 2.924298293668651E+05,      /* J = 21 */
(PID.TID 0000.0001)                 2.873420591008078E+05,      /* J = 22 */
(PID.TID 0000.0001)                 2.810845823202647E+05,      /* J = 23 */
(PID.TID 0000.0001)                 2.736173771018112E+05,      /* J = 24 */
(PID.TID 0000.0001)                 2.648750305193301E+05,      /* J = 25 */
(PID.TID 0000.0001)                 2.547526806712889E+05,      /* J = 26 */
(PID.TID 0000.0001)                 2.430829951739083E+05,      /* J = 27 */
(PID.TID 0000.0001)                 2.295958105911512E+05,      /* J = 28 */
(PID.TID 0000.0001)                 2.138410773065497E+05,      /* J = 29 */
(PID.TID 0000.0001)                 1.950254041626018E+05,      /* J = 30 */
(PID.TID 0000.0001)                 1.716197227386011E+05,      /* J = 31 */
(PID.TID 0000.0001)                 1.403701524205398E+05       /* J = 32 */
(PID.TID 0000.0001)     ;
(PID.TID 0000.0001) dyG =  /* dyG(:,1,:,1) ( units: m ) */
(PID.TID 0000.0001)                 1.009837800879055E+05,      /* I =  1 */
(PID.TID 0000.0001)                 1.403701524205398E+05,      /* I =  2 */
(PID.TID 0000.0001)                 1.716197227386011E+05,      /* I =  3 */
(PID.TID 0000.0001)      . . .
(PID.TID 0000.0001)                 2.963715635865306E+05,      /* I = 46 */
(PID.TID 0000.0001)                 2.991805843171258E+05,      /* I = 47 */
(PID.TID 0000.0001)                 3.008638765647886E+05,      /* I = 48 */
(PID.TID 0000.0001)                 3.014246674484008E+05,      /* I = 49 */
(PID.TID 0000.0001)                 3.008638765647886E+05,      /* I = 50 */
(PID.TID 0000.0001)                 2.991805843171258E+05,      /* I = 51 */
(PID.TID 0000.0001)      . . .
(PID.TID 0000.0001)                 1.950254041626018E+05,      /* I = 94 */
(PID.TID 0000.0001)                 1.716197227386011E+05,      /* I = 95 */
(PID.TID 0000.0001)                 1.403701524205398E+05,      /* I = 96 */
(PID.TID 0000.0001)                 1.009837800879055E+05,      /* I = 97 */
(PID.TID 0000.0001)                 1.403701524205398E+05,      /* I = 98 */
(PID.TID 0000.0001)                 1.716197227386011E+05,      /* I = 99 */
(PID.TID 0000.0001)      . . .
(PID.TID 0000.0001)                 2.963715635865306E+05,      /* I =142 */
(PID.TID 0000.0001)                 2.991805843171258E+05,      /* I =143 */
(PID.TID 0000.0001)                 3.008638765647886E+05,      /* I =144 */
(PID.TID 0000.0001)                 3.014246674484008E+05,      /* I =145 */
(PID.TID 0000.0001)                 3.008638765647886E+05,      /* I =146 */
(PID.TID 0000.0001)                 2.991805843171258E+05,      /* I =147 */
(PID.TID 0000.0001)      . . .
(PID.TID 0000.0001)                 1.950254041626018E+05,      /* I =190 */
(PID.TID 0000.0001)                 1.716197227386011E+05,      /* I =191 */
(PID.TID 0000.0001)                 1.403701524205398E+05       /* I =192 */
(PID.TID 0000.0001)     ;
(PID.TID 0000.0001) dyG =  /* dyG(1,:,1,:) ( units: m ) */
(PID.TID 0000.0001)                 1.009837800879055E+05,      /* J =  1 */
(PID.TID 0000.0001)                 1.534505834330338E+05,      /* J =  2 */
(PID.TID 0000.0001)                 1.823321598773926E+05,      /* J =  3 */
(PID.TID 0000.0001)                 2.038999045536999E+05,      /* J =  4 */
(PID.TID 0000.0001)                 2.213884732245467E+05,      /* J =  5 */
(PID.TID 0000.0001)                 2.361211699596122E+05,      /* J =  6 */
(PID.TID 0000.0001)                 2.487693460283865E+05,      /* J =  7 */
(PID.TID 0000.0001)                 2.597126963772147E+05,      /* J =  8 */
(PID.TID 0000.0001)                 2.691790288994575E+05,      /* J =  9 */
(PID.TID 0000.0001)                 2.773091043277394E+05,      /* J = 10 */
(PID.TID 0000.0001)                 2.841906470085516E+05,      /* J = 11 */
(PID.TID 0000.0001)                 2.898778860929753E+05,      /* J = 12 */
(PID.TID 0000.0001)                 2.944035815526416E+05,      /* J = 13 */
(PID.TID 0000.0001)                 2.977867909042096E+05,      /* J = 14 */
(PID.TID 0000.0001)                 3.000380090330854E+05,      /* J = 15 */
(PID.TID 0000.0001)     2 @  3.011625828699101E+05,             /* J = 16: 17 */
(PID.TID 0000.0001)                 3.000380090330854E+05,      /* J = 18 */
(PID.TID 0000.0001)                 2.977867909042096E+05,      /* J = 19 */
(PID.TID 0000.0001)                 2.944035815526416E+05,      /* J = 20 */
(PID.TID 0000.0001)                 2.898778860929753E+05,      /* J = 21 */
(PID.TID 0000.0001)                 2.841906470085516E+05,      /* J = 22 */
(PID.TID 0000.0001)                 2.773091043277394E+05,      /* J = 23 */
(PID.TID 0000.0001)                 2.691790288994575E+05,      /* J = 24 */
(PID.TID 0000.0001)                 2.597126963772147E+05,      /* J = 25 */
(PID.TID 0000.0001)                 2.487693460283865E+05,      /* J = 26 */
(PID.TID 0000.0001)                 2.361211699596122E+05,      /* J = 27 */
(PID.TID 0000.0001)                 2.213884732245467E+05,      /* J = 28 */
(PID.TID 0000.0001)                 2.038999045536999E+05,      /* J = 29 */
(PID.TID 0000.0001)                 1.823321598773926E+05,      /* J = 30 */
(PID.TID 0000.0001)                 1.534505834330338E+05,      /* J = 31 */
(PID.TID 0000.0001)                 1.009837800879055E+05       /* J = 32 */
(PID.TID 0000.0001)     ;
(PID.TID 0000.0001) dxC =  /* dxC(:,1,:,1) ( units: m ) */
(PID.TID 0000.0001)                 1.114203141013064E+05,      /* I =  1 */
(PID.TID 0000.0001)                 1.391343389937106E+05,      /* I =  2 */
(PID.TID 0000.0001)                 1.709574999026266E+05,      /* I =  3 */
(PID.TID 0000.0001)      . . .
(PID.TID 0000.0001)                 2.963038832565530E+05,      /* I = 46 */
(PID.TID 0000.0001)                 2.991142470004740E+05,      /* I = 47 */
(PID.TID 0000.0001)                 3.007982711627968E+05,      /* I = 48 */
(PID.TID 0000.0001)                 3.013593857228136E+05,      /* I = 49 */
(PID.TID 0000.0001)                 3.007982711627968E+05,      /* I = 50 */
(PID.TID 0000.0001)                 2.991142470004740E+05,      /* I = 51 */
(PID.TID 0000.0001)      . . .
(PID.TID 0000.0001)                 1.946503699269892E+05,      /* I = 94 */
(PID.TID 0000.0001)                 1.709574999026266E+05,      /* I = 95 */
(PID.TID 0000.0001)                 1.391343389937106E+05,      /* I = 96 */
(PID.TID 0000.0001)                 1.114203141013064E+05,      /* I = 97 */
(PID.TID 0000.0001)                 1.391343389937106E+05,      /* I = 98 */
(PID.TID 0000.0001)                 1.709574999026266E+05,      /* I = 99 */
(PID.TID 0000.0001)      . . .
(PID.TID 0000.0001)                 2.963038832565530E+05,      /* I =142 */
(PID.TID 0000.0001)                 2.991142470004740E+05,      /* I =143 */
(PID.TID 0000.0001)                 3.007982711627968E+05,      /* I =144 */
(PID.TID 0000.0001)                 3.013593857228136E+05,      /* I =145 */
(PID.TID 0000.0001)                 3.007982711627968E+05,      /* I =146 */
(PID.TID 0000.0001)                 2.991142470004740E+05,      /* I =147 */
(PID.TID 0000.0001)      . . .
(PID.TID 0000.0001)                 1.946503699269892E+05,      /* I =190 */
(PID.TID 0000.0001)                 1.709574999026266E+05,      /* I =191 */
(PID.TID 0000.0001)                 1.391343389937106E+05       /* I =192 */
(PID.TID 0000.0001)     ;
(PID.TID 0000.0001) dxC =  /* dxC(1,:,1,:) ( units: m ) */
(PID.TID 0000.0001)                 1.114203141013064E+05,      /* J =  1 */
(PID.TID 0000.0001)                 1.549545757850771E+05,      /* J =  2 */
(PID.TID 0000.0001)                 1.829777599966776E+05,      /* J =  3 */
(PID.TID 0000.0001)                 2.042717761866506E+05,      /* J =  4 */
(PID.TID 0000.0001)                 2.216367828252819E+05,      /* J =  5 */
(PID.TID 0000.0001)                 2.363029564123586E+05,      /* J =  6 */
(PID.TID 0000.0001)                 2.489113743322025E+05,      /* J =  7 */
(PID.TID 0000.0001)                 2.598293319150326E+05,      /* J =  8 */
(PID.TID 0000.0001)                 2.692787333338535E+05,      /* J =  9 */
(PID.TID 0000.0001)                 2.773972106720365E+05,      /* J = 10 */
(PID.TID 0000.0001)                 2.842706922224557E+05,      /* J = 11 */
(PID.TID 0000.0001)                 2.899523122489403E+05,      /* J = 12 */
(PID.TID 0000.0001)                 2.944741346384699E+05,      /* J = 13 */
(PID.TID 0000.0001)                 2.978547649292580E+05,      /* J = 14 */
(PID.TID 0000.0001)                 3.001044073506459E+05,      /* J = 15 */
(PID.TID 0000.0001)     2 @  3.012281885409289E+05,             /* J = 16: 17 */
(PID.TID 0000.0001)                 3.001044073506459E+05,      /* J = 18 */
(PID.TID 0000.0001)                 2.978547649292580E+05,      /* J = 19 */
(PID.TID 0000.0001)                 2.944741346384699E+05,      /* J = 20 */
(PID.TID 0000.0001)                 2.899523122489403E+05,      /* J = 21 */
(PID.TID 0000.0001)                 2.842706922224557E+05,      /* J = 22 */
(PID.TID 0000.0001)                 2.773972106720365E+05,      /* J = 23 */
(PID.TID 0000.0001)                 2.692787333338535E+05,      /* J = 24 */
(PID.TID 0000.0001)                 2.598293319150326E+05,      /* J = 25 */
(PID.TID 0000.0001)                 2.489113743322025E+05,      /* J = 26 */
(PID.TID 0000.0001)                 2.363029564123586E+05,      /* J = 27 */
(PID.TID 0000.0001)                 2.216367828252819E+05,      /* J = 28 */
(PID.TID 0000.0001)                 2.042717761866506E+05,      /* J = 29 */
(PID.TID 0000.0001)                 1.829777599966776E+05,      /* J = 30 */
(PID.TID 0000.0001)                 1.549545757850771E+05,      /* J = 31 */
(PID.TID 0000.0001)                 1.114203141013064E+05       /* J = 32 */
(PID.TID 0000.0001)     ;
(PID.TID 0000.0001) dyC =  /* dyC(:,1,:,1) ( units: m ) */
(PID.TID 0000.0001)                 1.114203141013064E+05,      /* I =  1 */
(PID.TID 0000.0001)                 1.549545757850771E+05,      /* I =  2 */
(PID.TID 0000.0001)                 1.829777599966776E+05,      /* I =  3 */
(PID.TID 0000.0001)      . . .
(PID.TID 0000.0001)                 2.978547649292580E+05,      /* I = 46 */
(PID.TID 0000.0001)                 3.001044073506459E+05,      /* I = 47 */
(PID.TID 0000.0001)                 3.012281885409289E+05,      /* I = 48 */
(PID.TID 0000.0001)                 3.012281885409289E+05,      /* I = 49 */
(PID.TID 0000.0001)                 3.001044073506459E+05,      /* I = 50 */
(PID.TID 0000.0001)                 2.978547649292580E+05,      /* I = 51 */
(PID.TID 0000.0001)      . . .
(PID.TID 0000.0001)                 1.829777599966776E+05,      /* I = 94 */
(PID.TID 0000.0001)                 1.549545757850771E+05,      /* I = 95 */
(PID.TID 0000.0001)                 1.114203141013064E+05,      /* I = 96 */
(PID.TID 0000.0001)                 1.114203141013064E+05,      /* I = 97 */
(PID.TID 0000.0001)                 1.549545757850771E+05,      /* I = 98 */
(PID.TID 0000.0001)                 1.829777599966776E+05,      /* I = 99 */
(PID.TID 0000.0001)      . . .
(PID.TID 0000.0001)                 2.978547649292580E+05,      /* I =142 */
(PID.TID 0000.0001)                 3.001044073506459E+05,      /* I =143 */
(PID.TID 0000.0001)                 3.012281885409289E+05,      /* I =144 */
(PID.TID 0000.0001)                 3.012281885409289E+05,      /* I =145 */
(PID.TID 0000.0001)                 3.001044073506459E+05,      /* I =146 */
(PID.TID 0000.0001)                 2.978547649292580E+05,      /* I =147 */
(PID.TID 0000.0001)      . . .
(PID.TID 0000.0001)                 1.829777599966776E+05,      /* I =190 */
(PID.TID 0000.0001)                 1.549545757850771E+05,      /* I =191 */
(PID.TID 0000.0001)                 1.114203141013064E+05       /* I =192 */
(PID.TID 0000.0001)     ;
(PID.TID 0000.0001) dyC =  /* dyC(1,:,1,:) ( units: m ) */
(PID.TID 0000.0001)                 1.114203141013064E+05,      /* J =  1 */
(PID.TID 0000.0001)                 1.391343389937106E+05,      /* J =  2 */
(PID.TID 0000.0001)                 1.709574999026266E+05,      /* J =  3 */
(PID.TID 0000.0001)                 1.946503699269892E+05,      /* J =  4 */
(PID.TID 0000.0001)                 2.135964483342134E+05,      /* J =  5 */
(PID.TID 0000.0001)                 2.294195678257306E+05,      /* J =  6 */
(PID.TID 0000.0001)                 2.429464709770498E+05,      /* J =  7 */
(PID.TID 0000.0001)                 2.546408290696998E+05,      /* J =  8 */
(PID.TID 0000.0001)                 2.647791839299727E+05,      /* J =  9 */
(PID.TID 0000.0001)                 2.735321911346108E+05,      /* J = 10 */
(PID.TID 0000.0001)                 2.810065951609633E+05,      /* J = 11 */
(PID.TID 0000.0001)                 2.872689479506990E+05,      /* J = 12 */
(PID.TID 0000.0001)                 2.923599955312932E+05,      /* J = 13 */
(PID.TID 0000.0001)                 2.963038832565530E+05,      /* J = 14 */
(PID.TID 0000.0001)                 2.991142470004740E+05,      /* J = 15 */
(PID.TID 0000.0001)                 3.007982711627968E+05,      /* J = 16 */
(PID.TID 0000.0001)                 3.013593857228136E+05,      /* J = 17 */
(PID.TID 0000.0001)                 3.007982711627968E+05,      /* J = 18 */
(PID.TID 0000.0001)                 2.991142470004740E+05,      /* J = 19 */
(PID.TID 0000.0001)                 2.963038832565530E+05,      /* J = 20 */
(PID.TID 0000.0001)                 2.923599955312932E+05,      /* J = 21 */
(PID.TID 0000.0001)                 2.872689479506990E+05,      /* J = 22 */
(PID.TID 0000.0001)                 2.810065951609633E+05,      /* J = 23 */
(PID.TID 0000.0001)                 2.735321911346108E+05,      /* J = 24 */
(PID.TID 0000.0001)                 2.647791839299727E+05,      /* J = 25 */
(PID.TID 0000.0001)                 2.546408290696998E+05,      /* J = 26 */
(PID.TID 0000.0001)                 2.429464709770498E+05,      /* J = 27 */
(PID.TID 0000.0001)                 2.294195678257306E+05,      /* J = 28 */
(PID.TID 0000.0001)                 2.135964483342134E+05,      /* J = 29 */
(PID.TID 0000.0001)                 1.946503699269892E+05,      /* J = 30 */
(PID.TID 0000.0001)                 1.709574999026266E+05,      /* J = 31 */
(PID.TID 0000.0001)                 1.391343389937106E+05       /* J = 32 */
(PID.TID 0000.0001)     ;
(PID.TID 0000.0001) dxV =  /* dxV(:,1,:,1) ( units: m ) */
(PID.TID 0000.0001)                 8.015229982413632E+04,      /* I =  1 */
(PID.TID 0000.0001)                 1.333130744933864E+05,      /* I =  2 */
(PID.TID 0000.0001)                 1.691744868129062E+05,      /* I =  3 */
(PID.TID 0000.0001)      . . .
(PID.TID 0000.0001)                 2.962371870847826E+05,      /* I = 46 */
(PID.TID 0000.0001)                 2.990534755671296E+05,      /* I = 47 */
(PID.TID 0000.0001)                 3.007409169495504E+05,      /* I = 48 */
(PID.TID 0000.0001)                 3.013031486919771E+05,      /* I = 49 */
(PID.TID 0000.0001)                 3.007409169495504E+05,      /* I = 50 */
(PID.TID 0000.0001)                 2.990534755671296E+05,      /* I = 51 */
(PID.TID 0000.0001)      . . .
(PID.TID 0000.0001)                 1.937548202849060E+05,      /* I = 94 */
(PID.TID 0000.0001)                 1.691744868129062E+05,      /* I = 95 */
(PID.TID 0000.0001)                 1.333130744933864E+05,      /* I = 96 */
(PID.TID 0000.0001)                 8.015229982413632E+04,      /* I = 97 */
(PID.TID 0000.0001)                 1.333130744933864E+05,      /* I = 98 */
(PID.TID 0000.0001)                 1.691744868129062E+05,      /* I = 99 */
(PID.TID 0000.0001)      . . .
(PID.TID 0000.0001)                 2.962371870847826E+05,      /* I =142 */
(PID.TID 0000.0001)                 2.990534755671296E+05,      /* I =143 */
(PID.TID 0000.0001)                 3.007409169495504E+05,      /* I =144 */
(PID.TID 0000.0001)                 3.013031486919771E+05,      /* I =145 */
(PID.TID 0000.0001)                 3.007409169495504E+05,      /* I =146 */
(PID.TID 0000.0001)                 2.990534755671296E+05,      /* I =147 */
(PID.TID 0000.0001)      . . .
(PID.TID 0000.0001)                 1.937548202849060E+05,      /* I =190 */
(PID.TID 0000.0001)                 1.691744868129062E+05,      /* I =191 */
(PID.TID 0000.0001)                 1.333130744933864E+05       /* I =192 */
(PID.TID 0000.0001)     ;
(PID.TID 0000.0001) dxV =  /* dxV(1,:,1,:) ( units: m ) */
(PID.TID 0000.0001)                 8.015229982413632E+04,      /* J =  1 */
(PID.TID 0000.0001)                 1.362652340208229E+05,      /* J =  2 */
(PID.TID 0000.0001)                 1.701080315742101E+05,      /* J =  3 */
(PID.TID 0000.0001)                 1.942331448101592E+05,      /* J =  4 */
(PID.TID 0000.0001)                 2.133486626971531E+05,      /* J =  5 */
(PID.TID 0000.0001)                 2.292584591272880E+05,      /* J =  6 */
(PID.TID 0000.0001)                 2.428369969078989E+05,      /* J =  7 */
(PID.TID 0000.0001)                 2.545652950875683E+05,      /* J =  8 */
(PID.TID 0000.0001)                 2.647274964828301E+05,      /* J =  9 */
(PID.TID 0000.0001)                 2.734980225206389E+05,      /* J = 10 */
(PID.TID 0000.0001)                 2.809856491525217E+05,      /* J = 11 */
(PID.TID 0000.0001)                 2.872580915202295E+05,      /* J = 12 */
(PID.TID 0000.0001)                 2.923567890694162E+05,      /* J = 13 */
(PID.TID 0000.0001)                 2.963063101754721E+05,      /* J = 14 */
(PID.TID 0000.0001)                 2.991205495886625E+05,      /* J = 15 */
(PID.TID 0000.0001)                 3.008068453676764E+05,      /* J = 16 */
(PID.TID 0000.0001)                 3.013686170436881E+05,      /* J = 17 */
(PID.TID 0000.0001)                 3.008068453676764E+05,      /* J = 18 */
(PID.TID 0000.0001)                 2.991205495886625E+05,      /* J = 19 */
(PID.TID 0000.0001)                 2.963063101754721E+05,      /* J = 20 */
(PID.TID 0000.0001)                 2.923567890694162E+05,      /* J = 21 */
(PID.TID 0000.0001)                 2.872580915202295E+05,      /* J = 22 */
(PID.TID 0000.0001)                 2.809856491525217E+05,      /* J = 23 */
(PID.TID 0000.0001)                 2.734980225206389E+05,      /* J = 24 */
(PID.TID 0000.0001)                 2.647274964828301E+05,      /* J = 25 */
(PID.TID 0000.0001)                 2.545652950875683E+05,      /* J = 26 */
(PID.TID 0000.0001)                 2.428369969078989E+05,      /* J = 27 */
(PID.TID 0000.0001)                 2.292584591272880E+05,      /* J = 28 */
(PID.TID 0000.0001)                 2.133486626971531E+05,      /* J = 29 */
(PID.TID 0000.0001)                 1.942331448101592E+05,      /* J = 30 */
(PID.TID 0000.0001)                 1.701080315742101E+05,      /* J = 31 */
(PID.TID 0000.0001)                 1.362652340208229E+05       /* J = 32 */
(PID.TID 0000.0001)     ;
(PID.TID 0000.0001) dyU =  /* dyU(:,1,:,1) ( units: m ) */
(PID.TID 0000.0001)                 8.015229982413632E+04,      /* I =  1 */
(PID.TID 0000.0001)                 1.362652340208229E+05,      /* I =  2 */
(PID.TID 0000.0001)                 1.701080315742101E+05,      /* I =  3 */
(PID.TID 0000.0001)      . . .
(PID.TID 0000.0001)                 2.963063101754721E+05,      /* I = 46 */
(PID.TID 0000.0001)                 2.991205495886625E+05,      /* I = 47 */
(PID.TID 0000.0001)                 3.008068453676764E+05,      /* I = 48 */
(PID.TID 0000.0001)                 3.013686170436881E+05,      /* I = 49 */
(PID.TID 0000.0001)                 3.008068453676764E+05,      /* I = 50 */
(PID.TID 0000.0001)                 2.991205495886625E+05,      /* I = 51 */
(PID.TID 0000.0001)      . . .
(PID.TID 0000.0001)                 1.942331448101592E+05,      /* I = 94 */
(PID.TID 0000.0001)                 1.701080315742101E+05,      /* I = 95 */
(PID.TID 0000.0001)                 1.362652340208229E+05,      /* I = 96 */
(PID.TID 0000.0001)                 8.015229982413632E+04,      /* I = 97 */
(PID.TID 0000.0001)                 1.362652340208229E+05,      /* I = 98 */
(PID.TID 0000.0001)                 1.701080315742101E+05,      /* I = 99 */
(PID.TID 0000.0001)      . . .
(PID.TID 0000.0001)                 2.963063101754721E+05,      /* I =142 */
(PID.TID 0000.0001)                 2.991205495886625E+05,      /* I =143 */
(PID.TID 0000.0001)                 3.008068453676764E+05,      /* I =144 */
(PID.TID 0000.0001)                 3.013686170436881E+05,      /* I =145 */
(PID.TID 0000.0001)                 3.008068453676764E+05,      /* I =146 */
(PID.TID 0000.0001)                 2.991205495886625E+05,      /* I =147 */
(PID.TID 0000.0001)      . . .
(PID.TID 0000.0001)                 1.942331448101592E+05,      /* I =190 */
(PID.TID 0000.0001)                 1.701080315742101E+05,      /* I =191 */
(PID.TID 0000.0001)                 1.362652340208229E+05       /* I =192 */
(PID.TID 0000.0001)     ;
(PID.TID 0000.0001) dyU =  /* dyU(1,:,1,:) ( units: m ) */
(PID.TID 0000.0001)                 8.015229982413632E+04,      /* J =  1 */
(PID.TID 0000.0001)                 1.333130744933864E+05,      /* J =  2 */
(PID.TID 0000.0001)                 1.691744868129062E+05,      /* J =  3 */
(PID.TID 0000.0001)                 1.937548202849060E+05,      /* J =  4 */
(PID.TID 0000.0001)                 2.130490056267208E+05,      /* J =  5 */
(PID.TID 0000.0001)                 2.290479919481738E+05,      /* J =  6 */
(PID.TID 0000.0001)                 2.426774358027003E+05,      /* J =  7 */
(PID.TID 0000.0001)                 2.544372984215561E+05,      /* J =  8 */
(PID.TID 0000.0001)                 2.646201463834826E+05,      /* J =  9 */
(PID.TID 0000.0001)                 2.734046499619031E+05,      /* J = 10 */
(PID.TID 0000.0001)                 2.809019351693761E+05,      /* J = 11 */
(PID.TID 0000.0001)                 2.871811105274442E+05,      /* J = 12 */
(PID.TID 0000.0001)                 2.922844849381675E+05,      /* J = 13 */
(PID.TID 0000.0001)                 2.962371870847826E+05,      /* J = 14 */
(PID.TID 0000.0001)                 2.990534755671296E+05,      /* J = 15 */
(PID.TID 0000.0001)                 3.007409169495504E+05,      /* J = 16 */
(PID.TID 0000.0001)                 3.013031486919771E+05,      /* J = 17 */
(PID.TID 0000.0001)                 3.007409169495504E+05,      /* J = 18 */
(PID.TID 0000.0001)                 2.990534755671296E+05,      /* J = 19 */
(PID.TID 0000.0001)                 2.962371870847826E+05,      /* J = 20 */
(PID.TID 0000.0001)                 2.922844849381675E+05,      /* J = 21 */
(PID.TID 0000.0001)                 2.871811105274442E+05,      /* J = 22 */
(PID.TID 0000.0001)                 2.809019351693761E+05,      /* J = 23 */
(PID.TID 0000.0001)                 2.734046499619031E+05,      /* J = 24 */
(PID.TID 0000.0001)                 2.646201463834826E+05,      /* J = 25 */
(PID.TID 0000.0001)                 2.544372984215561E+05,      /* J = 26 */
(PID.TID 0000.0001)                 2.426774358027003E+05,      /* J = 27 */
(PID.TID 0000.0001)                 2.290479919481738E+05,      /* J = 28 */
(PID.TID 0000.0001)                 2.130490056267208E+05,      /* J = 29 */
(PID.TID 0000.0001)                 1.937548202849060E+05,      /* J = 30 */
(PID.TID 0000.0001)                 1.691744868129062E+05,      /* J = 31 */
(PID.TID 0000.0001)                 1.333130744933864E+05       /* J = 32 */
(PID.TID 0000.0001)     ;
(PID.TID 0000.0001) rA  =  /* rA (:,1,:,1) ( units: m^2 ) */
(PID.TID 0000.0001)                 1.401900702255611E+10,      /* I =  1 */
(PID.TID 0000.0001)                 2.459906945574446E+10,      /* I =  2 */
(PID.TID 0000.0001)                 3.378518544307869E+10,      /* I =  3 */
(PID.TID 0000.0001)      . . .
(PID.TID 0000.0001)                 8.874277443041928E+10,      /* I = 46 */
(PID.TID 0000.0001)                 9.008620045350865E+10,      /* I = 47 */
(PID.TID 0000.0001)                 9.076111290418457E+10,      /* I = 48 */
(PID.TID 0000.0001)                 9.076111290422060E+10,      /* I = 49 */
(PID.TID 0000.0001)                 9.008620045354469E+10,      /* I = 50 */
(PID.TID 0000.0001)                 8.874277443041928E+10,      /* I = 51 */
(PID.TID 0000.0001)      . . .
(PID.TID 0000.0001)                 3.378518544304265E+10,      /* I = 94 */
(PID.TID 0000.0001)                 2.459906945574446E+10,      /* I = 95 */
(PID.TID 0000.0001)                 1.401900702259215E+10,      /* I = 96 */
(PID.TID 0000.0001)                 1.401900702255611E+10,      /* I = 97 */
(PID.TID 0000.0001)                 2.459906945574446E+10,      /* I = 98 */
(PID.TID 0000.0001)                 3.378518544307869E+10,      /* I = 99 */
(PID.TID 0000.0001)      . . .
(PID.TID 0000.0001)                 8.874277443041928E+10,      /* I =142 */
(PID.TID 0000.0001)                 9.008620045350865E+10,      /* I =143 */
(PID.TID 0000.0001)                 9.076111290418457E+10,      /* I =144 */
(PID.TID 0000.0001)                 9.076111290422060E+10,      /* I =145 */
(PID.TID 0000.0001)                 9.008620045354469E+10,      /* I =146 */
(PID.TID 0000.0001)                 8.874277443041928E+10,      /* I =147 */
(PID.TID 0000.0001)      . . .
(PID.TID 0000.0001)                 3.378518544304265E+10,      /* I =190 */
(PID.TID 0000.0001)                 2.459906945574446E+10,      /* I =191 */
(PID.TID 0000.0001)                 1.401900702259215E+10       /* I =192 */
(PID.TID 0000.0001)     ;
(PID.TID 0000.0001) rA  =  /* rA (1,:,1,:) ( units: m^2 ) */
(PID.TID 0000.0001)                 1.401900702255611E+10,      /* J =  1 */
(PID.TID 0000.0001)                 2.459906945574446E+10,      /* J =  2 */
(PID.TID 0000.0001)                 3.378518544307869E+10,      /* J =  3 */
(PID.TID 0000.0001)                 4.192037169898667E+10,      /* J =  4 */
(PID.TID 0000.0001)                 4.925938996118163E+10,      /* J =  5 */
(PID.TID 0000.0001)                 5.594154126607553E+10,      /* J =  6 */
(PID.TID 0000.0001)                 6.203683527776127E+10,      /* J =  7 */
(PID.TID 0000.0001)                 6.757541173817516E+10,      /* J =  8 */
(PID.TID 0000.0001)                 7.256353271748119E+10,      /* J =  9 */
(PID.TID 0000.0001)                 7.699293007098555E+10,      /* J = 10 */
(PID.TID 0000.0001)                 8.084683449728902E+10,      /* J = 11 */
(PID.TID 0000.0001)                 8.410423102799828E+10,      /* J = 12 */
(PID.TID 0000.0001)                 8.674306976737517E+10,      /* J = 13 */
(PID.TID 0000.0001)                 8.874277443041928E+10,      /* J = 14 */
(PID.TID 0000.0001)                 9.008620045350865E+10,      /* J = 15 */
(PID.TID 0000.0001)                 9.076111290418457E+10,      /* J = 16 */
(PID.TID 0000.0001)                 9.076111290422060E+10,      /* J = 17 */
(PID.TID 0000.0001)                 9.008620045354469E+10,      /* J = 18 */
(PID.TID 0000.0001)                 8.874277443041928E+10,      /* J = 19 */
(PID.TID 0000.0001)                 8.674306976737517E+10,      /* J = 20 */
(PID.TID 0000.0001)                 8.410423102799828E+10,      /* J = 21 */
(PID.TID 0000.0001)                 8.084683449728902E+10,      /* J = 22 */
(PID.TID 0000.0001)                 7.699293007098555E+10,      /* J = 23 */
(PID.TID 0000.0001)                 7.256353271748119E+10,      /* J = 24 */
(PID.TID 0000.0001)                 6.757541173817516E+10,      /* J = 25 */
(PID.TID 0000.0001)                 6.203683527772523E+10,      /* J = 26 */
(PID.TID 0000.0001)                 5.594154126607553E+10,      /* J = 27 */
(PID.TID 0000.0001)                 4.925938996118163E+10,      /* J = 28 */
(PID.TID 0000.0001)                 4.192037169898667E+10,      /* J = 29 */
(PID.TID 0000.0001)                 3.378518544307869E+10,      /* J = 30 */
(PID.TID 0000.0001)                 2.459906945574446E+10,      /* J = 31 */
(PID.TID 0000.0001)                 1.401900702259215E+10       /* J = 32 */
(PID.TID 0000.0001)     ;
(PID.TID 0000.0001) rAw =  /* rAw(:,1,:,1) ( units: m^2 ) */
(PID.TID 0000.0001)                 1.216690346714270E+10,      /* I =  1 */
(PID.TID 0000.0001)                 1.974052138506315E+10,      /* I =  2 */
(PID.TID 0000.0001)                 2.943712825252015E+10,      /* I =  3 */
(PID.TID 0000.0001)      . . .
(PID.TID 0000.0001)                 8.781353403175085E+10,      /* I = 46 */
(PID.TID 0000.0001)                 8.948571540392021E+10,      /* I = 47 */
(PID.TID 0000.0001)                 9.049530583086168E+10,      /* I = 48 */
(PID.TID 0000.0001)                 9.083293515008307E+10,      /* I = 49 */
(PID.TID 0000.0001)                 9.049530583087070E+10,      /* I = 50 */
(PID.TID 0000.0001)                 8.948571540391121E+10,      /* I = 51 */
(PID.TID 0000.0001)      . . .
(PID.TID 0000.0001)                 3.801790263325260E+10,      /* I = 94 */
(PID.TID 0000.0001)                 2.943712825251114E+10,      /* I = 95 */
(PID.TID 0000.0001)                 1.974052138509018E+10,      /* I = 96 */
(PID.TID 0000.0001)                 1.216690346714270E+10,      /* I = 97 */
(PID.TID 0000.0001)                 1.974052138506315E+10,      /* I = 98 */
(PID.TID 0000.0001)                 2.943712825252015E+10,      /* I = 99 */
(PID.TID 0000.0001)      . . .
(PID.TID 0000.0001)                 8.781353403175085E+10,      /* I =142 */
(PID.TID 0000.0001)                 8.948571540392021E+10,      /* I =143 */
(PID.TID 0000.0001)                 9.049530583086168E+10,      /* I =144 */
(PID.TID 0000.0001)                 9.083293515008307E+10,      /* I =145 */
(PID.TID 0000.0001)                 9.049530583087070E+10,      /* I =146 */
(PID.TID 0000.0001)                 8.948571540391121E+10,      /* I =147 */
(PID.TID 0000.0001)      . . .
(PID.TID 0000.0001)                 3.801790263325260E+10,      /* I =190 */
(PID.TID 0000.0001)                 2.943712825251114E+10,      /* I =191 */
(PID.TID 0000.0001)                 1.974052138509018E+10       /* I =192 */
(PID.TID 0000.0001)     ;
(PID.TID 0000.0001) rAw =  /* rAw(1,:,1,:) ( units: m^2 ) */
(PID.TID 0000.0001)                 1.216690346714270E+10,      /* J =  1 */
(PID.TID 0000.0001)                 2.390126200743558E+10,      /* J =  2 */
(PID.TID 0000.0001)                 3.341968103208270E+10,      /* J =  3 */
(PID.TID 0000.0001)                 4.168532893152940E+10,      /* J =  4 */
(PID.TID 0000.0001)                 4.909074590409593E+10,      /* J =  5 */
(PID.TID 0000.0001)                 5.581203765722643E+10,      /* J =  6 */
(PID.TID 0000.0001)                 6.193257577506788E+10,      /* J =  7 */
(PID.TID 0000.0001)                 6.748840226738273E+10,      /* J =  8 */
(PID.TID 0000.0001)                 7.248875782324815E+10,      /* J =  9 */
(PID.TID 0000.0001)                 7.692702995909871E+10,      /* J = 10 */
(PID.TID 0000.0001)                 8.078743937057304E+10,      /* J = 11 */
(PID.TID 0000.0001)                 8.404959656062837E+10,      /* J = 12 */
(PID.TID 0000.0001)                 8.669186205742538E+10,      /* J = 13 */
(PID.TID 0000.0001)                 8.869393350723613E+10,      /* J = 14 */
(PID.TID 0000.0001)                 9.003884657168852E+10,      /* J = 15 */
(PID.TID 0000.0001)     2 @  9.071447638299399E+10,             /* J = 16: 17 */
(PID.TID 0000.0001)                 9.003884657168852E+10,      /* J = 18 */
(PID.TID 0000.0001)                 8.869393350723613E+10,      /* J = 19 */
(PID.TID 0000.0001)                 8.669186205742538E+10,      /* J = 20 */
(PID.TID 0000.0001)                 8.404959656062837E+10,      /* J = 21 */
(PID.TID 0000.0001)                 8.078743937057304E+10,      /* J = 22 */
(PID.TID 0000.0001)                 7.692702995909871E+10,      /* J = 23 */
(PID.TID 0000.0001)                 7.248875782324815E+10,      /* J = 24 */
(PID.TID 0000.0001)                 6.748840226738273E+10,      /* J = 25 */
(PID.TID 0000.0001)                 6.193257577506788E+10,      /* J = 26 */
(PID.TID 0000.0001)                 5.581203765722643E+10,      /* J = 27 */
(PID.TID 0000.0001)                 4.909074590409593E+10,      /* J = 28 */
(PID.TID 0000.0001)                 4.168532893152940E+10,      /* J = 29 */
(PID.TID 0000.0001)                 3.341968103208270E+10,      /* J = 30 */
(PID.TID 0000.0001)                 2.390126200743558E+10,      /* J = 31 */
(PID.TID 0000.0001)                 1.216690346714270E+10       /* J = 32 */
(PID.TID 0000.0001)     ;
(PID.TID 0000.0001) rAs =  /* rAs(:,1,:,1) ( units: m^2 ) */
(PID.TID 0000.0001)                 1.216690346714270E+10,      /* I =  1 */
(PID.TID 0000.0001)                 2.390126200743558E+10,      /* I =  2 */
(PID.TID 0000.0001)                 3.341968103208270E+10,      /* I =  3 */
(PID.TID 0000.0001)      . . .
(PID.TID 0000.0001)                 8.869393350723613E+10,      /* I = 46 */
(PID.TID 0000.0001)                 9.003884657168852E+10,      /* I = 47 */
(PID.TID 0000.0001)                 9.071447638299399E+10,      /* I = 48 */
(PID.TID 0000.0001)                 9.071447638299399E+10,      /* I = 49 */
(PID.TID 0000.0001)                 9.003884657168852E+10,      /* I = 50 */
(PID.TID 0000.0001)                 8.869393350723613E+10,      /* I = 51 */
(PID.TID 0000.0001)      . . .
(PID.TID 0000.0001)                 3.341968103208270E+10,      /* I = 94 */
(PID.TID 0000.0001)                 2.390126200743558E+10,      /* I = 95 */
(PID.TID 0000.0001)                 1.216690346714270E+10,      /* I = 96 */
(PID.TID 0000.0001)                 1.216690346714270E+10,      /* I = 97 */
(PID.TID 0000.0001)                 2.390126200743558E+10,      /* I = 98 */
(PID.TID 0000.0001)                 3.341968103208270E+10,      /* I = 99 */
(PID.TID 0000.0001)      . . .
(PID.TID 0000.0001)                 8.869393350723613E+10,      /* I =142 */
(PID.TID 0000.0001)                 9.003884657168852E+10,      /* I =143 */
(PID.TID 0000.0001)                 9.071447638299399E+10,      /* I =144 */
(PID.TID 0000.0001)                 9.071447638299399E+10,      /* I =145 */
(PID.TID 0000.0001)                 9.003884657168852E+10,      /* I =146 */
(PID.TID 0000.0001)                 8.869393350723613E+10,      /* I =147 */
(PID.TID 0000.0001)      . . .
(PID.TID 0000.0001)                 3.341968103208270E+10,      /* I =190 */
(PID.TID 0000.0001)                 2.390126200743558E+10,      /* I =191 */
(PID.TID 0000.0001)                 1.216690346714270E+10       /* I =192 */
(PID.TID 0000.0001)     ;
(PID.TID 0000.0001) rAs =  /* rAs(1,:,1,:) ( units: m^2 ) */
(PID.TID 0000.0001)                 1.216690346714270E+10,      /* J =  1 */
(PID.TID 0000.0001)                 1.974052138506315E+10,      /* J =  2 */
(PID.TID 0000.0001)                 2.943712825252015E+10,      /* J =  3 */
(PID.TID 0000.0001)                 3.801790263324359E+10,      /* J =  4 */
(PID.TID 0000.0001)                 4.571243814189866E+10,      /* J =  5 */
(PID.TID 0000.0001)                 5.269930713599979E+10,      /* J =  6 */
(PID.TID 0000.0001)                 5.907428494299063E+10,      /* J =  7 */
(PID.TID 0000.0001)                 6.488320895111514E+10,      /* J =  8 */
(PID.TID 0000.0001)                 7.014205907741882E+10,      /* J =  9 */
(PID.TID 0000.0001)                 7.484854821847499E+10,      /* J = 10 */
(PID.TID 0000.0001)                 7.898934631431560E+10,      /* J = 11 */
(PID.TID 0000.0001)                 8.254500894894537E+10,      /* J = 12 */
(PID.TID 0000.0001)                 8.549360686473492E+10,      /* J = 13 */
(PID.TID 0000.0001)                 8.781353403175085E+10,      /* J = 14 */
(PID.TID 0000.0001)                 8.948571540392021E+10,      /* J = 15 */
(PID.TID 0000.0001)                 9.049530583086168E+10,      /* J = 16 */
(PID.TID 0000.0001)                 9.083293515008307E+10,      /* J = 17 */
(PID.TID 0000.0001)                 9.049530583087070E+10,      /* J = 18 */
(PID.TID 0000.0001)                 8.948571540391121E+10,      /* J = 19 */
(PID.TID 0000.0001)                 8.781353403174185E+10,      /* J = 20 */
(PID.TID 0000.0001)                 8.549360686467184E+10,      /* J = 21 */
(PID.TID 0000.0001)                 8.254500894890933E+10,      /* J = 22 */
(PID.TID 0000.0001)                 7.898934631434262E+10,      /* J = 23 */
(PID.TID 0000.0001)                 7.484854821844795E+10,      /* J = 24 */
(PID.TID 0000.0001)                 7.014205907742783E+10,      /* J = 25 */
(PID.TID 0000.0001)                 6.488320895111514E+10,      /* J = 26 */
(PID.TID 0000.0001)                 5.907428494299063E+10,      /* J = 27 */
(PID.TID 0000.0001)                 5.269930713599078E+10,      /* J = 28 */
(PID.TID 0000.0001)                 4.571243814190767E+10,      /* J = 29 */
(PID.TID 0000.0001)                 3.801790263325260E+10,      /* J = 30 */
(PID.TID 0000.0001)                 2.943712825251114E+10,      /* J = 31 */
(PID.TID 0000.0001)                 1.974052138509018E+10       /* J = 32 */
(PID.TID 0000.0001)     ;
(PID.TID 0000.0001) globalArea = /* Integrated horizontal Area (m^2) */
(PID.TID 0000.0001)                 5.099043637817215E+14
(PID.TID 0000.0001)     ;
(PID.TID 0000.0001) // =======================================================
(PID.TID 0000.0001) // End of Model config. summary
(PID.TID 0000.0001) // =======================================================
(PID.TID 0000.0001) 
(PID.TID 0000.0001) == Packages configuration : Check & print summary ==
(PID.TID 0000.0001) 
(PID.TID 0000.0001) GAD_CHECK: #define ALLOW_GENERIC_ADVDIFF
(PID.TID 0000.0001) // =======================================================
(PID.TID 0000.0001) // CONFIG_CHECK : Normal End
(PID.TID 0000.0001) // =======================================================
(PID.TID 0000.0001) 
(PID.TID 0000.0001) // =======================================================
(PID.TID 0000.0001) // Field Initial Temperature at iteration          1
(PID.TID 0000.0001) // CMIN =          2.550781394579144E+02
(PID.TID 0000.0001) // CMAX =          3.154790798950475E+02
(PID.TID 0000.0001) // CINT =          2.237071868041966E+00
(PID.TID 0000.0001) // SYMBOLS (CMIN->CMAX): -abcdefghijklmnopqrstuvwxyz+
(PID.TID 0000.0001) //                  0.0: .
(PID.TID 0000.0001) // RANGE I (Lo:Hi:Step):(   1: 192:   1)
(PID.TID 0000.0001) // RANGE J (Lo:Hi:Step):(  32:   1:  -1)
(PID.TID 0000.0001) // RANGE K (Lo:Hi:Step):(   1:   1:   1)
(PID.TID 0000.0001) // =======================================================
(PID.TID 0000.0001) K =   1
(PID.TID 0000.0001)                I=10      I=20      I=30      I=40      I=50      I=60      I=70      I=80      I=90      I=100     I=110     I=120     I=130     I=140     I=150     I=160     I=170     I=180     I=190
(PID.TID 0000.0001) |--J--|123456789|123456789|123456789|123456789|123456789|123456789|123456789|123456789|123456789|123456789|123456789|123456789|123456789|123456789|123456789|123456789|123456789|123456789|123456789|12
(PID.TID 0000.0001)     32 rrrqqqpppooonnnnnnnnooopppqqqrrrrrrqqqpppooonnnnnnnnooopppqqqrrrrqqqppoonnnmmmmmmmmmmnnnooppqqqrrsstuvvwxyyzz++++++zzyyxwvvutssrrsstuvvwxyyzz++++++zzyyxwvvutssrrqqqppoonnnmmmmmmmmmmnnnooppqqqr
(PID.TID 0000.0001)     31 ssrrrrqqqpppppoooopppppqqqrrrrssssrrrrqqqpppppoooopppppqqqrrrrssqqppoonnmmmllllllllllmmmnnooppqqrsstuvvwxyyzz++++++zzyyxwvvutssrrsstuvvwxyyzz++++++zzyyxwvvutssrqqppoonnmmmllllllllllmmmnnooppqq
(PID.TID 0000.0001)     30 sssssrrrrqqqqqqqqqqqqqqrrrrssssssssssrrrrqqqqqqqqqqqqqqrrrrsssssqppoonmmllkkkkjjjjkkkkllmmnooppqrrstuvvwxyyzz++++++zzyyxwvvutsrrrrstuvvwxyyzz++++++zzyyxwvvutsrrqppoonmmllkkkkjjjjkkkkllmmnooppq
(PID.TID 0000.0001)     29 tttttsssssrrrrrrrrrrrrsssssttttttttttsssssrrrrrrrrrrrrssssstttttqponnmllkkjjjiiiiiijjjkkllmnnopqqrstuuvwxyyzz++++++zzyyxwvuutsrqqrstuuvwxyyzz++++++zzyyxwvuutsrqqponnmllkkjjjiiiiiijjjkkllmnnopq
(PID.TID 0000.0001)     28 uuuutttttttsssssssssstttttttuuuuuuuutttttttsssssssssstttttttuuuupoonmllkjjiihhhhhhhhiijjkllmnoopqrsttuvwxyyzz++++++zzyyxwvuttsrqqrsttuvwxyyzz++++++zzyyxwvuttsrqpoonmllkjjiihhhhhhhhiijjkllmnoop
(PID.TID 0000.0001)     27 vvvuuuuuuuuttttttttttuuuuuuuuvvvvvvuuuuuuuuttttttttttuuuuuuuuvvvponmllkjiihhgggggggghhiijkllmnopqrrstuvwxyyzz++++++zzyyxwvutsrrqqrrstuvwxyyzz++++++zzyyxwvutsrrqponmllkjiihhgggggggghhiijkllmnop
(PID.TID 0000.0001)     26 vvvvvvvvvvvvuuuuuuuuvvvvvvvvvvvvvvvvvvvvvvvvuuuuuuuuvvvvvvvvvvvvonmllkjihhggffffffffgghhijkllmnopqrstuvwxxyzz++++++zzyxxwvutsrqppqrstuvwxxyzz++++++zzyxxwvutsrqponmllkjihhggffffffffgghhijkllmno
(PID.TID 0000.0001)     25 wwwwwwwwwwwwvvvvvvvvwwwwwwwwwwwwwwwwwwwwwwwwvvvvvvvvwwwwwwwwwwwwonmlkjihhgffeeeeeeeeffghhijklmnopqrstuvwxxyzz++++++zzyxxwvutsrqppqrstuvwxxyzz++++++zzyxxwvutsrqponmlkjihhgffeeeeeeeeffghhijklmno
(PID.TID 0000.0001)     24 xxxxxxxxxxxwwwwwwwwwwxxxxxxxxxxxxxxxxxxxxxxwwwwwwwwwwxxxxxxxxxxxnmlkjihhgfeeddddddddeefghhijklmnpqrstuvwxxyzz++++++zzyxxwvutsrqppqrstuvwxxyzz++++++zzyxxwvutsrqpnmlkjihhgfeeddddddddeefghhijklmn
(PID.TID 0000.0001)     23 yyyyyyxxxxxxxxxxxxxxxxxxxxyyyyyyyyyyyyxxxxxxxxxxxxxxxxxxxxyyyyyynmlkjihgfeeddccccccddeefghijklmnopqstuvwxxyzz++++++zzyxxwvutsqpoopqstuvwxxyzz++++++zzyxxwvutsqponmlkjihgfeeddccccccddeefghijklmn
(PID.TID 0000.0001)     22 yyyyyyyyyyyyyyyyyyyyyyyyyyyyyyyyyyyyyyyyyyyyyyyyyyyyyyyyyyyyyyyynmkjihgfeedccbbbbbbccdeefghijkmnopqrtuvwxxyzz++++++zzyxxwvutrqpoopqrtuvwxxyzz++++++zzyxxwvutrqponmkjihgfeedccbbbbbbccdeefghijkmn
(PID.TID 0000.0001)     21 zzzzzzzzzzzzzzzzzzzzzzzzzzzzzzzzzzzzzzzzzzzzzzzzzzzzzzzzzzzzzzzzmlkjihgfedccbbaaaabbccdefghijklmopqrstvwwxyzz++++++zzyxwwvtsrqpoopqrstvwwxyzz++++++zzyxwwvtsrqpomlkjihgfedccbbaaaabbccdefghijklm
(PID.TID 0000.0001)     20 zzzzzzzzzzzzzzzzzzzzzzzzzzzzzzzzzzzzzzzzzzzzzzzzzzzzzzzzzzzzzzzzmlkjhgfeddcbbaaaaaabbcddefghjklmnpqrstuvwxyzz++++++zzyxwvutsrqpnnpqrstuvwxyzz++++++zzyxwvutsrqpnmlkjhgfeddcbbaaaaaabbcddefghjklm
(PID.TID 0000.0001)     19 ++++++++++++++++++++++++++++++++++++++++++++++++++++++++++++++++mlkihgfedcbbaaa--aaabbcdefghiklmnpqrstuvwxyzz++++++zzyxwvutsrqpnnpqrstuvwxyzz++++++zzyxwvutsrqpnmlkihgfedcbbaaa--aaabbcdefghiklm
(PID.TID 0000.0001)     18 ++++++++++++++++++++++++++++++++++++++++++++++++++++++++++++++++mljihgfedcbaaa----aaabcdefghijlmnoqrstuvwxyzz++++++zzyxwvutsrqonnoqrstuvwxyzz++++++zzyxwvutsrqonmljihgfedcbaaa----aaabcdefghijlm
(PID.TID 0000.0001)     17 ++++++++++++++++++++++++++++++++++++++++++++++++++++++++++++++++mljihgfedcbaa------aabcdefghijlmnoqrstuvwxyzz++++++zzyxwvutsrqonnoqrstuvwxyzz++++++zzyxwvutsrqonmljihgfedcbaa------aabcdefghijlm
(PID.TID 0000.0001)     16 ++++++++++++++++++++++++++++++++++++++++++++++++++++++++++++++++mljihgfedcbaa------aabcdefghijlmnoqrstuvwxyzz++++++zzyxwvutsrqonnoqrstuvwxyzz++++++zzyxwvutsrqonmljihgfedcbaa------aabcdefghijlm
(PID.TID 0000.0001)     15 ++++++++++++++++++++++++++++++++++++++++++++++++++++++++++++++++mljihgfedcbaaa----aaabcdefghijlmnoqrstuvwxyzz++++++zzyxwvutsrqonnoqrstuvwxyzz++++++zzyxwvutsrqonmljihgfedcbaaa----aaabcdefghijlm
(PID.TID 0000.0001)     14 ++++++++++++++++++++++++++++++++++++++++++++++++++++++++++++++++mlkihgfedcbbaaa--aaabbcdefghiklmnpqrstuvwxyzz++++++zzyxwvutsrqpnnpqrstuvwxyzz++++++zzyxwvutsrqpnmlkihgfedcbbaaa--aaabbcdefghiklm
(PID.TID 0000.0001)     13 zzzzzzzzzzzzzzzzzzzzzzzzzzzzzzzzzzzzzzzzzzzzzzzzzzzzzzzzzzzzzzzzmlkjhgfeddcbbaaaaaabbcddefghjklmnpqrstuvwxyzz++++++zzyxwvutsrqpnnpqrstuvwxyzz++++++zzyxwvutsrqpnmlkjhgfeddcbbaaaaaabbcddefghjklm
(PID.TID 0000.0001)     12 zzzzzzzzzzzzzzzzzzzzzzzzzzzzzzzzzzzzzzzzzzzzzzzzzzzzzzzzzzzzzzzzmlkjihgfedccbbaaaabbccdefghijklmopqrstvwwxyzz++++++zzyxwwvtsrqpoopqrstvwwxyzz++++++zzyxwwvtsrqpomlkjihgfedccbbaaaabbccdefghijklm
(PID.TID 0000.0001)     11 yyyyyyyyyyyyyyyyyyyyyyyyyyyyyyyyyyyyyyyyyyyyyyyyyyyyyyyyyyyyyyyynmkjihgfeedccbbbbbbccdeefghijkmnopqrtuvwxxyzz++++++zzyxxwvutrqpoopqrtuvwxxyzz++++++zzyxxwvutrqponmkjihgfeedccbbbbbbccdeefghijkmn
(PID.TID 0000.0001)     10 yyyyyyxxxxxxxxxxxxxxxxxxxxyyyyyyyyyyyyxxxxxxxxxxxxxxxxxxxxyyyyyynmlkjihgfeeddccccccddeefghijklmnopqstuvwxxyzz++++++zzyxxwvutsqpoopqstuvwxxyzz++++++zzyxxwvutsqponmlkjihgfeeddccccccddeefghijklmn
(PID.TID 0000.0001)      9 xxxxxxxxxxxwwwwwwwwwwxxxxxxxxxxxxxxxxxxxxxxwwwwwwwwwwxxxxxxxxxxxnmlkjihhgfeeddddddddeefghhijklmnpqrstuvwxxyzz++++++zzyxxwvutsrqppqrstuvwxxyzz++++++zzyxxwvutsrqpnmlkjihhgfeeddddddddeefghhijklmn
(PID.TID 0000.0001)      8 wwwwwwwwwwwwvvvvvvvvwwwwwwwwwwwwwwwwwwwwwwwwvvvvvvvvwwwwwwwwwwwwonmlkjihhgffeeeeeeeeffghhijklmnopqrstuvwxxyzz++++++zzyxxwvutsrqppqrstuvwxxyzz++++++zzyxxwvutsrqponmlkjihhgffeeeeeeeeffghhijklmno
(PID.TID 0000.0001)      7 vvvvvvvvvvvvuuuuuuuuvvvvvvvvvvvvvvvvvvvvvvvvuuuuuuuuvvvvvvvvvvvvonmllkjihhggffffffffgghhijkllmnopqrstuvwxxyzz++++++zzyxxwvutsrqppqrstuvwxxyzz++++++zzyxxwvutsrqponmllkjihhggffffffffgghhijkllmno
(PID.TID 0000.0001)      6 vvvuuuuuuuuttttttttttuuuuuuuuvvvvvvuuuuuuuuttttttttttuuuuuuuuvvvponmllkjiihhgggggggghhiijkllmnopqrrstuvwxyyzz++++++zzyyxwvutsrrqqrrstuvwxyyzz++++++zzyyxwvutsrrqponmllkjiihhgggggggghhiijkllmnop
(PID.TID 0000.0001)      5 uuuutttttttsssssssssstttttttuuuuuuuutttttttsssssssssstttttttuuuupoonmllkjjiihhhhhhhhiijjkllmnoopqrsttuvwxyyzz++++++zzyyxwvuttsrqqrsttuvwxyyzz++++++zzyyxwvuttsrqpoonmllkjjiihhhhhhhhiijjkllmnoop
(PID.TID 0000.0001)      4 tttttsssssrrrrrrrrrrrrsssssttttttttttsssssrrrrrrrrrrrrssssstttttqponnmllkkjjjiiiiiijjjkkllmnnopqqrstuuvwxyyzz++++++zzyyxwvuutsrqqrstuuvwxyyzz++++++zzyyxwvuutsrqqponnmllkkjjjiiiiiijjjkkllmnnopq
(PID.TID 0000.0001)      3 sssssrrrrqqqqqqqqqqqqqqrrrrssssssssssrrrrqqqqqqqqqqqqqqrrrrsssssqppoonmmllkkkkjjjjkkkkllmmnooppqrrstuvvwxyyzz++++++zzyyxwvvutsrrrrstuvvwxyyzz++++++zzyyxwvvutsrrqppoonmmllkkkkjjjjkkkkllmmnooppq
(PID.TID 0000.0001)      2 ssrrrrqqqpppppoooopppppqqqrrrrssssrrrrqqqpppppoooopppppqqqrrrrssqqppoonnmmmllllllllllmmmnnooppqqrsstuvvwxyyzz++++++zzyyxwvvutssrrsstuvvwxyyzz++++++zzyyxwvvutssrqqppoonnmmmllllllllllmmmnnooppqq
(PID.TID 0000.0001)      1 rrrqqqpppooonnnnnnnnooopppqqqrrrrrrqqqpppooonnnnnnnnooopppqqqrrrrqqqppoonnnmmmmmmmmmmnnnooppqqqrrsstuvvwxyyzz++++++zzyyxwvvutssrrsstuvvwxyyzz++++++zzyyxwvvutssrrqqqppoonnnmmmmmmmmmmnnnooppqqqr
(PID.TID 0000.0001) // =======================================================
(PID.TID 0000.0001) // END OF FIELD                                          =
(PID.TID 0000.0001) // =======================================================
(PID.TID 0000.0001) 
(PID.TID 0000.0001) // =======================================================
(PID.TID 0000.0001) // Field Initial Salinity at iteration          1
(PID.TID 0000.0001) // CMIN =          1.000000000000000E+32
(PID.TID 0000.0001) // CMAX =         -1.000000000000000E+32
(PID.TID 0000.0001) // CINT =          0.000000000000000E+00
(PID.TID 0000.0001) // SYMBOLS (CMIN->CMAX): -abcdefghijklmnopqrstuvwxyz+
(PID.TID 0000.0001) //                  0.0: .
(PID.TID 0000.0001) // RANGE I (Lo:Hi:Step):(   1: 192:   1)
(PID.TID 0000.0001) // RANGE J (Lo:Hi:Step):(  32:   1:  -1)
(PID.TID 0000.0001) // RANGE K (Lo:Hi:Step):(   1:   1:   1)
(PID.TID 0000.0001) // =======================================================
(PID.TID 0000.0001) // =======================================================
(PID.TID 0000.0001) // END OF FIELD                                          =
(PID.TID 0000.0001) // =======================================================
(PID.TID 0000.0001) 
(PID.TID 0000.0001) Start initial hydrostatic pressure computation
(PID.TID 0000.0001) Pressure is predetermined for buoyancyRelation ATMOSPHERIC
(PID.TID 0000.0001) 
(PID.TID 0000.0001)  write diagnostics summary to file ioUnit:      6
Iter.Nb:         0 ; Time(s):  0.0000000000000E+00
------------------------------------------------------------------------
2D/3D diagnostics: Number of lists:     3
------------------------------------------------------------------------
listId=    1 ; file name: surfDiag
 nFlds, nActive,       freq     &     phase        , nLev               
    3  |    3  |     12000.000000         0.000000 |   1
 levels:   1
 diag# | name   |   ipt  |  iMate | kLev|   count |   mate.C|           
    23 |ETAN    |      1 |      0 |   1 |       0 |
    24 |ETANSQ  |      2 |      0 |   1 |       0 |
    25 |DETADT2 |      3 |      0 |   1 |       0 |
------------------------------------------------------------------------
listId=    2 ; file name: dynDiag
 nFlds, nActive,       freq     &     phase        , nLev               
    5  |    5  |   2592000.000000         0.000000 |   5
 levels:   1   2   3   4   5
 diag# | name   |   ipt  |  iMate | kLev|   count |   mate.C|           
    29 |UVEL    |      4 |      9 |   5 |       0 |       0 |
    30 |VVEL    |      9 |      4 |   5 |       0 |       0 |
    31 |WVEL    |     14 |      0 |   5 |       0 |
    26 |THETA   |     19 |      0 |   5 |       0 |
   175 |SHAP_dU |     24 |      0 |   5 |       0 |
------------------------------------------------------------------------
listId=    3 ; file name: secmoms
 nFlds, nActive,       freq     &     phase        , nLev               
    7  |    7  |   2592000.000000         0.000000 |   5
 levels:   1   2   3   4   5
 diag# | name   |   ipt  |  iMate | kLev|   count |   mate.C|           
    34 |UVELSQ  |     29 |     34 |   5 |       0 |       0 |
    35 |VVELSQ  |     34 |     29 |   5 |       0 |       0 |
    32 |THETASQ |     39 |      0 |   5 |       0 |
    39 |UV_VEL_C|     44 |     44 |   5 |       0 |       0 |
    46 |UTHMASS |     49 |     54 |   5 |       0 |       0 |
    47 |VTHMASS |     54 |     49 |   5 |       0 |       0 |
    54 |WVELTH  |     59 |      0 |   5 |       0 |
------------------------------------------------------------------------
Global & Regional Statistics diagnostics: Number of lists:     0
------------------------------------------------------------------------
(PID.TID 0000.0001) // =======================================================
(PID.TID 0000.0001) // Model current state
(PID.TID 0000.0001) // =======================================================
(PID.TID 0000.0001) 
(PID.TID 0000.0001) // =======================================================
(PID.TID 0000.0001) // Begin MONITOR dynamic field statistics
(PID.TID 0000.0001) // =======================================================
(PID.TID 0000.0001) %MON time_tsnumber                =                     0
(PID.TID 0000.0001) %MON time_secondsf                =   0.0000000000000E+00
(PID.TID 0000.0001) %MON dynstat_eta_max              =   0.0000000000000E+00
(PID.TID 0000.0001) %MON dynstat_eta_min              =   0.0000000000000E+00
(PID.TID 0000.0001) %MON dynstat_eta_mean             =   0.0000000000000E+00
(PID.TID 0000.0001) %MON dynstat_eta_sd               =   0.0000000000000E+00
(PID.TID 0000.0001) %MON dynstat_eta_del2             =   0.0000000000000E+00
(PID.TID 0000.0001) %MON dynstat_uvel_max             =   0.0000000000000E+00
(PID.TID 0000.0001) %MON dynstat_uvel_min             =   0.0000000000000E+00
(PID.TID 0000.0001) %MON dynstat_uvel_mean            =   0.0000000000000E+00
(PID.TID 0000.0001) %MON dynstat_uvel_sd              =   0.0000000000000E+00
(PID.TID 0000.0001) %MON dynstat_uvel_del2            =   0.0000000000000E+00
(PID.TID 0000.0001) %MON dynstat_vvel_max             =   0.0000000000000E+00
(PID.TID 0000.0001) %MON dynstat_vvel_min             =   0.0000000000000E+00
(PID.TID 0000.0001) %MON dynstat_vvel_mean            =   0.0000000000000E+00
(PID.TID 0000.0001) %MON dynstat_vvel_sd              =   0.0000000000000E+00
(PID.TID 0000.0001) %MON dynstat_vvel_del2            =   0.0000000000000E+00
(PID.TID 0000.0001) %MON dynstat_wvel_max             =   0.0000000000000E+00
(PID.TID 0000.0001) %MON dynstat_wvel_min             =   0.0000000000000E+00
(PID.TID 0000.0001) %MON dynstat_wvel_mean            =   0.0000000000000E+00
(PID.TID 0000.0001) %MON dynstat_wvel_sd              =   0.0000000000000E+00
(PID.TID 0000.0001) %MON dynstat_wvel_del2            =   0.0000000000000E+00
(PID.TID 0000.0001) %MON dynstat_theta_max            =   4.1921910192279E+02
(PID.TID 0000.0001) %MON dynstat_theta_min            =   2.5507813945791E+02
(PID.TID 0000.0001) %MON dynstat_theta_mean           =   3.1868194046418E+02
(PID.TID 0000.0001) %MON dynstat_theta_sd             =   4.5639454082076E+01
(PID.TID 0000.0001) %MON dynstat_theta_del2           =   4.1604054812275E-02
(PID.TID 0000.0001) %MON dynstat_salt_max             =   0.0000000000000E+00
(PID.TID 0000.0001) %MON dynstat_salt_min             =   0.0000000000000E+00
(PID.TID 0000.0001) %MON dynstat_salt_mean            =   0.0000000000000E+00
(PID.TID 0000.0001) %MON dynstat_salt_sd              =   0.0000000000000E+00
(PID.TID 0000.0001) %MON dynstat_salt_del2            =   0.0000000000000E+00
(PID.TID 0000.0001) %MON advcfl_uvel_max              =   0.0000000000000E+00
(PID.TID 0000.0001) %MON advcfl_vvel_max              =   0.0000000000000E+00
(PID.TID 0000.0001) %MON advcfl_wvel_max              =   0.0000000000000E+00
(PID.TID 0000.0001) %MON advcfl_W_hf_max              =   0.0000000000000E+00
(PID.TID 0000.0001) %MON pe_b_mean                    =   0.0000000000000E+00
(PID.TID 0000.0001) %MON ke_max                       =   0.0000000000000E+00
(PID.TID 0000.0001) %MON ke_mean                      =   0.0000000000000E+00
(PID.TID 0000.0001) %MON ke_vol                       =   5.0990436378172E+19
(PID.TID 0000.0001) %MON vort_r_min                   =   0.0000000000000E+00
(PID.TID 0000.0001) %MON vort_r_max                   =   0.0000000000000E+00
(PID.TID 0000.0001) %MON vort_a_mean                  =  -3.6770327606777E-21
(PID.TID 0000.0001) %MON vort_a_sd                    =   8.4202189509968E-05
(PID.TID 0000.0001) %MON vort_p_mean                  =  -3.6770327606777E-21
(PID.TID 0000.0001) %MON vort_p_sd                    =   8.4202189509968E-05
(PID.TID 0000.0001) %MON surfExpan_theta_mean         =   0.0000000000000E+00
(PID.TID 0000.0001) %MON surfExpan_salt_mean          =   0.0000000000000E+00
(PID.TID 0000.0001) %MON surfExpan_Heat_mean          =   0.0000000000000E+00
(PID.TID 0000.0001) %MON En_Budget_T2PE_mean          =   0.0000000000000E+00
(PID.TID 0000.0001) // =======================================================
(PID.TID 0000.0001) // End MONITOR dynamic field statistics
(PID.TID 0000.0001) // =======================================================
 cg2d: Sum(rhs),rhsMax =   5.96855898038484E-13  1.55131868913362E+02
(PID.TID 0000.0001)                    cg2d_init_res =    2.55561287096203E+01
(PID.TID 0000.0001)                       cg2d_iters =    19
(PID.TID 0000.0001)                         cg2d_res =    1.68846712296157E-13
(PID.TID 0000.0001) // =======================================================
(PID.TID 0000.0001) // Begin MONITOR dynamic field statistics
(PID.TID 0000.0001) // =======================================================
(PID.TID 0000.0001) %MON time_tsnumber                =                     1
(PID.TID 0000.0001) %MON time_secondsf                =   6.0000000000000E+02
(PID.TID 0000.0001) %MON dynstat_eta_max              =   4.4830254551228E+01
(PID.TID 0000.0001) %MON dynstat_eta_min              =  -2.3467603486484E+01
(PID.TID 0000.0001) %MON dynstat_eta_mean             =   8.4345228350332E-15
(PID.TID 0000.0001) %MON dynstat_eta_sd               =   1.9950878779048E+01
(PID.TID 0000.0001) %MON dynstat_eta_del2             =   8.5372171265181E-01
(PID.TID 0000.0001) %MON dynstat_uvel_max             =   2.6192921666941E+00
(PID.TID 0000.0001) %MON dynstat_uvel_min             =  -2.6192921666941E+00
(PID.TID 0000.0001) %MON dynstat_uvel_mean            =  -3.1127405700729E-16
(PID.TID 0000.0001) %MON dynstat_uvel_sd              =   6.9289422996161E-01
(PID.TID 0000.0001) %MON dynstat_uvel_del2            =   5.6807484748786E-03
(PID.TID 0000.0001) %MON dynstat_vvel_max             =   2.6192921666941E+00
(PID.TID 0000.0001) %MON dynstat_vvel_min             =  -2.6192921666942E+00
(PID.TID 0000.0001) %MON dynstat_vvel_mean            =   1.3492726261405E-17
(PID.TID 0000.0001) %MON dynstat_vvel_sd              =   6.9289422996161E-01
(PID.TID 0000.0001) %MON dynstat_vvel_del2            =   5.6807484748786E-03
(PID.TID 0000.0001) %MON dynstat_wvel_max             =   1.1196584751439E-01
(PID.TID 0000.0001) %MON dynstat_wvel_min             =  -3.9112672468075E-02
(PID.TID 0000.0001) %MON dynstat_wvel_mean            =   1.7978994138383E-17
(PID.TID 0000.0001) %MON dynstat_wvel_sd              =   2.7255887793797E-02
(PID.TID 0000.0001) %MON dynstat_wvel_del2            =   1.8777024653021E-03
(PID.TID 0000.0001) %MON dynstat_theta_max            =   4.1940282986818E+02
(PID.TID 0000.0001) %MON dynstat_theta_min            =   2.5507814877023E+02
(PID.TID 0000.0001) %MON dynstat_theta_mean           =   3.1868532671144E+02
(PID.TID 0000.0001) %MON dynstat_theta_sd             =   4.5637407459438E+01
(PID.TID 0000.0001) %MON dynstat_theta_del2           =   4.2489842561528E-02
(PID.TID 0000.0001) %MON dynstat_salt_max             =   0.0000000000000E+00
(PID.TID 0000.0001) %MON dynstat_salt_min             =   0.0000000000000E+00
(PID.TID 0000.0001) %MON dynstat_salt_mean            =   0.0000000000000E+00
(PID.TID 0000.0001) %MON dynstat_salt_sd              =   0.0000000000000E+00
(PID.TID 0000.0001) %MON dynstat_salt_del2            =   0.0000000000000E+00
(PID.TID 0000.0001) %MON advcfl_uvel_max              =   1.2015149331254E-02
(PID.TID 0000.0001) %MON advcfl_vvel_max              =   1.2015149331254E-02
(PID.TID 0000.0001) %MON advcfl_wvel_max              =   8.4151277628718E-03
(PID.TID 0000.0001) %MON advcfl_W_hf_max              =   4.6261370833640E-03
(PID.TID 0000.0001) %MON pe_b_mean                    =   1.9901878202814E-03
(PID.TID 0000.0001) %MON ke_max                       =   3.8263869233037E+00
(PID.TID 0000.0001) %MON ke_mean                      =   4.8000984400450E-01
(PID.TID 0000.0001) %MON ke_vol                       =   5.0990436378172E+19
(PID.TID 0000.0001) %MON vort_r_min                   =  -3.9938550737865E-08
(PID.TID 0000.0001) %MON vort_r_max                   =   3.9938550737886E-08
(PID.TID 0000.0001) %MON vort_a_mean                  =   1.2256775868926E-21
(PID.TID 0000.0001) %MON vort_a_sd                    =   8.4202189534442E-05
(PID.TID 0000.0001) %MON vort_p_mean                  =   1.2256775868926E-21
(PID.TID 0000.0001) %MON vort_p_sd                    =   8.4202189534442E-05
(PID.TID 0000.0001) %MON surfExpan_theta_mean         =  -5.6433273926130E-01
(PID.TID 0000.0001) %MON surfExpan_salt_mean          =   0.0000000000000E+00
(PID.TID 0000.0001) %MON surfExpan_Heat_mean          =  -5.6916117520755E+01
(PID.TID 0000.0001) %MON En_Budget_T2PE_mean          =   1.5523398902152E+01
(PID.TID 0000.0001) // =======================================================
(PID.TID 0000.0001) // End MONITOR dynamic field statistics
(PID.TID 0000.0001) // =======================================================
 cg2d: Sum(rhs),rhsMax =  -1.19371179607697E-12  3.45223199259868E+02
(PID.TID 0000.0001)                    cg2d_init_res =    2.15912513801053E+01
(PID.TID 0000.0001)                       cg2d_iters =    18
(PID.TID 0000.0001)                         cg2d_res =    2.25010686947266E-13
(PID.TID 0000.0001) // =======================================================
(PID.TID 0000.0001) // Begin MONITOR dynamic field statistics
(PID.TID 0000.0001) // =======================================================
(PID.TID 0000.0001) %MON time_tsnumber                =                     2
(PID.TID 0000.0001) %MON time_secondsf                =   1.2000000000000E+03
(PID.TID 0000.0001) %MON dynstat_eta_max              =   1.0873856651391E+02
(PID.TID 0000.0001) %MON dynstat_eta_min              =  -7.0107140029071E+01
(PID.TID 0000.0001) %MON dynstat_eta_mean             =   2.7311788227727E-14
(PID.TID 0000.0001) %MON dynstat_eta_sd               =   5.8773418307512E+01
(PID.TID 0000.0001) %MON dynstat_eta_del2             =   1.5408042684165E+00
(PID.TID 0000.0001) %MON dynstat_uvel_max             =   5.1946159017379E+00
(PID.TID 0000.0001) %MON dynstat_uvel_min             =  -5.1946159017379E+00
(PID.TID 0000.0001) %MON dynstat_uvel_mean            =   1.4271768747910E-02
(PID.TID 0000.0001) %MON dynstat_uvel_sd              =   1.3807690943466E+00
(PID.TID 0000.0001) %MON dynstat_uvel_del2            =   1.0901439167096E-02
(PID.TID 0000.0001) %MON dynstat_vvel_max             =   5.1946159017379E+00
(PID.TID 0000.0001) %MON dynstat_vvel_min             =  -5.1946159017379E+00
(PID.TID 0000.0001) %MON dynstat_vvel_mean            =   1.4271768747910E-02
(PID.TID 0000.0001) %MON dynstat_vvel_sd              =   1.3807690943466E+00
(PID.TID 0000.0001) %MON dynstat_vvel_del2            =   1.0901439167096E-02
(PID.TID 0000.0001) %MON dynstat_wvel_max             =   1.8340574158961E-01
(PID.TID 0000.0001) %MON dynstat_wvel_min             =  -7.7732621288305E-02
(PID.TID 0000.0001) %MON dynstat_wvel_mean            =  -1.4247504788907E-17
(PID.TID 0000.0001) %MON dynstat_wvel_sd              =   5.2875020253370E-02
(PID.TID 0000.0001) %MON dynstat_wvel_del2            =   2.5113572046676E-03
(PID.TID 0000.0001) %MON dynstat_theta_max            =   4.1977588087175E+02
(PID.TID 0000.0001) %MON dynstat_theta_min            =   2.5507817208965E+02
(PID.TID 0000.0001) %MON dynstat_theta_mean           =   3.1869406873669E+02
(PID.TID 0000.0001) %MON dynstat_theta_sd             =   4.5632124108364E+01
(PID.TID 0000.0001) %MON dynstat_theta_del2           =   4.4167126403883E-02
(PID.TID 0000.0001) %MON dynstat_salt_max             =   0.0000000000000E+00
(PID.TID 0000.0001) %MON dynstat_salt_min             =   0.0000000000000E+00
(PID.TID 0000.0001) %MON dynstat_salt_mean            =   0.0000000000000E+00
(PID.TID 0000.0001) %MON dynstat_salt_sd              =   0.0000000000000E+00
(PID.TID 0000.0001) %MON dynstat_salt_del2            =   0.0000000000000E+00
(PID.TID 0000.0001) %MON advcfl_uvel_max              =   2.4527429033825E-02
(PID.TID 0000.0001) %MON advcfl_vvel_max              =   2.4527429033824E-02
(PID.TID 0000.0001) %MON advcfl_wvel_max              =   1.4473402897874E-02
(PID.TID 0000.0001) %MON advcfl_W_hf_max              =   7.1817944447029E-03
(PID.TID 0000.0001) %MON pe_b_mean                    =   1.7271573497749E-02
(PID.TID 0000.0001) %MON ke_max                       =   1.5142685335174E+01
(PID.TID 0000.0001) %MON ke_mean                      =   1.9063616660892E+00
(PID.TID 0000.0001) %MON ke_vol                       =   5.0990436378172E+19
(PID.TID 0000.0001) %MON vort_r_min                   =  -2.9478059224250E-07
(PID.TID 0000.0001) %MON vort_r_max                   =   2.9478059224250E-07
(PID.TID 0000.0001) %MON vort_a_mean                  =  -3.6770327606777E-21
(PID.TID 0000.0001) %MON vort_a_sd                    =   8.4213486194956E-05
(PID.TID 0000.0001) %MON vort_p_mean                  =  -3.6770327606777E-21
(PID.TID 0000.0001) %MON vort_p_sd                    =   8.4213486194956E-05
(PID.TID 0000.0001) %MON surfExpan_theta_mean         =  -1.1221417313754E+00
(PID.TID 0000.0001) %MON surfExpan_salt_mean          =   0.0000000000000E+00
(PID.TID 0000.0001) %MON surfExpan_Heat_mean          =  -1.1317427860291E+02
(PID.TID 0000.0001) %MON En_Budget_T2PE_mean          =   3.0837616947149E+01
(PID.TID 0000.0001) // =======================================================
(PID.TID 0000.0001) // End MONITOR dynamic field statistics
(PID.TID 0000.0001) // =======================================================
 cg2d: Sum(rhs),rhsMax =  -8.81072992342524E-13  6.26167835046418E+02
(PID.TID 0000.0001)                    cg2d_init_res =    1.74021271489208E+01
(PID.TID 0000.0001)                       cg2d_iters =    18
(PID.TID 0000.0001)                         cg2d_res =    1.49134367563260E-13
(PID.TID 0000.0001) // =======================================================
(PID.TID 0000.0001) // Begin MONITOR dynamic field statistics
(PID.TID 0000.0001) // =======================================================
(PID.TID 0000.0001) %MON time_tsnumber                =                     3
(PID.TID 0000.0001) %MON time_secondsf                =   1.8000000000000E+03
(PID.TID 0000.0001) %MON dynstat_eta_max              =   2.1587821221049E+02
(PID.TID 0000.0001) %MON dynstat_eta_min              =  -1.3943645462992E+02
(PID.TID 0000.0001) %MON dynstat_eta_mean             =   6.9082758458367E-14
(PID.TID 0000.0001) %MON dynstat_eta_sd               =   1.1576987916476E+02
(PID.TID 0000.0001) %MON dynstat_eta_del2             =   1.8571305837220E+00
(PID.TID 0000.0001) %MON dynstat_uvel_max             =   7.6927774604487E+00
(PID.TID 0000.0001) %MON dynstat_uvel_min             =  -7.6927774604487E+00
(PID.TID 0000.0001) %MON dynstat_uvel_mean            =   3.7212046162326E-02
(PID.TID 0000.0001) %MON dynstat_uvel_sd              =   2.0573100835170E+00
(PID.TID 0000.0001) %MON dynstat_uvel_del2            =   1.4961433559290E-02
(PID.TID 0000.0001) %MON dynstat_vvel_max             =   7.6927774604487E+00
(PID.TID 0000.0001) %MON dynstat_vvel_min             =  -7.6927774604487E+00
(PID.TID 0000.0001) %MON dynstat_vvel_mean            =   3.7212046162326E-02
(PID.TID 0000.0001) %MON dynstat_vvel_sd              =   2.0573100835170E+00
(PID.TID 0000.0001) %MON dynstat_vvel_del2            =   1.4961433559290E-02
(PID.TID 0000.0001) %MON dynstat_wvel_max             =   2.2059052624957E-01
(PID.TID 0000.0001) %MON dynstat_wvel_min             =  -1.1554897243727E-01
(PID.TID 0000.0001) %MON dynstat_wvel_mean            =  -4.0707156539735E-18
(PID.TID 0000.0001) %MON dynstat_wvel_sd              =   7.7169745726155E-02
(PID.TID 0000.0001) %MON dynstat_wvel_del2            =   2.5915796299751E-03
(PID.TID 0000.0001) %MON dynstat_theta_max            =   4.2015978709576E+02
(PID.TID 0000.0001) %MON dynstat_theta_min            =   2.5507820320329E+02
(PID.TID 0000.0001) %MON dynstat_theta_mean           =   3.1870602131062E+02
(PID.TID 0000.0001) %MON dynstat_theta_sd             =   4.5624886308989E+01
(PID.TID 0000.0001) %MON dynstat_theta_del2           =   4.5713885949513E-02
(PID.TID 0000.0001) %MON dynstat_salt_max             =   0.0000000000000E+00
(PID.TID 0000.0001) %MON dynstat_salt_min             =   0.0000000000000E+00
(PID.TID 0000.0001) %MON dynstat_salt_mean            =   0.0000000000000E+00
(PID.TID 0000.0001) %MON dynstat_salt_sd              =   0.0000000000000E+00
(PID.TID 0000.0001) %MON dynstat_salt_del2            =   0.0000000000000E+00
(PID.TID 0000.0001) %MON advcfl_uvel_max              =   3.7048320393193E-02
(PID.TID 0000.0001) %MON advcfl_vvel_max              =   3.7048320393193E-02
(PID.TID 0000.0001) %MON advcfl_wvel_max              =   2.1427929133337E-02
(PID.TID 0000.0001) %MON advcfl_W_hf_max              =   1.0638928084332E-02
(PID.TID 0000.0001) %MON pe_b_mean                    =   6.7013324609110E-02
(PID.TID 0000.0001) %MON ke_max                       =   3.3385883713180E+01
(PID.TID 0000.0001) %MON ke_mean                      =   4.2331058673747E+00
(PID.TID 0000.0001) %MON ke_vol                       =   5.0990436378172E+19
(PID.TID 0000.0001) %MON vort_r_min                   =  -6.5019192618056E-07
(PID.TID 0000.0001) %MON vort_r_max                   =   6.5019192618056E-07
(PID.TID 0000.0001) %MON vort_a_mean                  =   1.2256775868926E-21
(PID.TID 0000.0001) %MON vort_a_sd                    =   8.4231745978391E-05
(PID.TID 0000.0001) %MON vort_p_mean                  =   1.2256775868926E-21
(PID.TID 0000.0001) %MON vort_p_sd                    =   8.4231745978391E-05
(PID.TID 0000.0001) %MON surfExpan_theta_mean         =  -1.6657843366855E+00
(PID.TID 0000.0001) %MON surfExpan_salt_mean          =   0.0000000000000E+00
(PID.TID 0000.0001) %MON surfExpan_Heat_mean          =  -1.6800368023150E+02
(PID.TID 0000.0001) %MON En_Budget_T2PE_mean          =   4.5736104520072E+01
(PID.TID 0000.0001) // =======================================================
(PID.TID 0000.0001) // End MONITOR dynamic field statistics
(PID.TID 0000.0001) // =======================================================
 cg2d: Sum(rhs),rhsMax =  -1.16529008664656E-12  1.03330805294946E+03
(PID.TID 0000.0001)                    cg2d_init_res =    1.38028505913833E+01
(PID.TID 0000.0001)                       cg2d_iters =    17
(PID.TID 0000.0001)                         cg2d_res =    6.96348185414644E-13
(PID.TID 0000.0001) // =======================================================
(PID.TID 0000.0001) // Begin MONITOR dynamic field statistics
(PID.TID 0000.0001) // =======================================================
(PID.TID 0000.0001) %MON time_tsnumber                =                     4
(PID.TID 0000.0001) %MON time_secondsf                =   2.4000000000000E+03
(PID.TID 0000.0001) %MON dynstat_eta_max              =   3.5625343718653E+02
(PID.TID 0000.0001) %MON dynstat_eta_min              =  -2.3080895720640E+02
(PID.TID 0000.0001) %MON dynstat_eta_mean             =   3.1167570095170E-13
(PID.TID 0000.0001) %MON dynstat_eta_sd               =   1.9033589171343E+02
(PID.TID 0000.0001) %MON dynstat_eta_del2             =   2.1516583303538E+00
(PID.TID 0000.0001) %MON dynstat_uvel_max             =   1.0096864409486E+01
(PID.TID 0000.0001) %MON dynstat_uvel_min             =  -1.0096864409486E+01
(PID.TID 0000.0001) %MON dynstat_uvel_mean            =   6.8467229705010E-02
(PID.TID 0000.0001) %MON dynstat_uvel_sd              =   2.7198857840928E+00
(PID.TID 0000.0001) %MON dynstat_uvel_del2            =   1.8073897465279E-02
(PID.TID 0000.0001) %MON dynstat_vvel_max             =   1.0096864409486E+01
(PID.TID 0000.0001) %MON dynstat_vvel_min             =  -1.0096864409486E+01
(PID.TID 0000.0001) %MON dynstat_vvel_mean            =   6.8467229705010E-02
(PID.TID 0000.0001) %MON dynstat_vvel_sd              =   2.7198857840928E+00
(PID.TID 0000.0001) %MON dynstat_vvel_del2            =   1.8073897465279E-02
(PID.TID 0000.0001) %MON dynstat_wvel_max             =   2.3927817970059E-01
(PID.TID 0000.0001) %MON dynstat_wvel_min             =  -1.5228774063155E-01
(PID.TID 0000.0001) %MON dynstat_wvel_mean            =  -3.9350251321744E-17
(PID.TID 0000.0001) %MON dynstat_wvel_sd              =   1.0048733224418E-01
(PID.TID 0000.0001) %MON dynstat_wvel_del2            =   2.5840654472943E-03
(PID.TID 0000.0001) %MON dynstat_theta_max            =   4.2052942294268E+02
(PID.TID 0000.0001) %MON dynstat_theta_min            =   2.5507824241726E+02
(PID.TID 0000.0001) %MON dynstat_theta_mean           =   3.1872106017003E+02
(PID.TID 0000.0001) %MON dynstat_theta_sd             =   4.5615764023855E+01
(PID.TID 0000.0001) %MON dynstat_theta_del2           =   4.7108579568222E-02
(PID.TID 0000.0001) %MON dynstat_salt_max             =   0.0000000000000E+00
(PID.TID 0000.0001) %MON dynstat_salt_min             =   0.0000000000000E+00
(PID.TID 0000.0001) %MON dynstat_salt_mean            =   0.0000000000000E+00
(PID.TID 0000.0001) %MON dynstat_salt_sd              =   0.0000000000000E+00
(PID.TID 0000.0001) %MON dynstat_salt_del2            =   0.0000000000000E+00
(PID.TID 0000.0001) %MON advcfl_uvel_max              =   4.9461311801469E-02
(PID.TID 0000.0001) %MON advcfl_vvel_max              =   4.9461311801468E-02
(PID.TID 0000.0001) %MON advcfl_wvel_max              =   2.8075044985320E-02
(PID.TID 0000.0001) %MON advcfl_W_hf_max              =   1.3949141552184E-02
(PID.TID 0000.0001) %MON pe_b_mean                    =   1.8113875837172E-01
(PID.TID 0000.0001) %MON ke_max                       =   5.7907526149683E+01
(PID.TID 0000.0001) %MON ke_mean                      =   7.4010761566490E+00
(PID.TID 0000.0001) %MON ke_vol                       =   5.0990436378172E+19
(PID.TID 0000.0001) %MON vort_r_min                   =  -1.0338622528645E-06
(PID.TID 0000.0001) %MON vort_r_max                   =   1.0338622528645E-06
(PID.TID 0000.0001) %MON vort_a_mean                  =  -1.2256775868926E-21
(PID.TID 0000.0001) %MON vort_a_sd                    =   8.4256780472729E-05
(PID.TID 0000.0001) %MON vort_p_mean                  =  -1.2256775868926E-21
(PID.TID 0000.0001) %MON vort_p_sd                    =   8.4256780472729E-05
(PID.TID 0000.0001) %MON surfExpan_theta_mean         =  -2.1911550015406E+00
(PID.TID 0000.0001) %MON surfExpan_salt_mean          =   0.0000000000000E+00
(PID.TID 0000.0001) %MON surfExpan_Heat_mean          =  -2.2099025432605E+02
(PID.TID 0000.0001) %MON En_Budget_T2PE_mean          =   6.0113302596205E+01
(PID.TID 0000.0001) // =======================================================
(PID.TID 0000.0001) // End MONITOR dynamic field statistics
(PID.TID 0000.0001) // =======================================================
 cg2d: Sum(rhs),rhsMax =  -2.95585778076202E-12  1.53122850084118E+03
(PID.TID 0000.0001)                    cg2d_init_res =    1.14178294342123E+01
(PID.TID 0000.0001)                       cg2d_iters =    17
(PID.TID 0000.0001)                         cg2d_res =    5.79862028350245E-13
(PID.TID 0000.0001) // =======================================================
(PID.TID 0000.0001) // Begin MONITOR dynamic field statistics
(PID.TID 0000.0001) // =======================================================
(PID.TID 0000.0001) %MON time_tsnumber                =                     5
(PID.TID 0000.0001) %MON time_secondsf                =   3.0000000000000E+03
(PID.TID 0000.0001) %MON dynstat_eta_max              =   5.2793937562965E+02
(PID.TID 0000.0001) %MON dynstat_eta_min              =  -3.4341860825064E+02
(PID.TID 0000.0001) %MON dynstat_eta_mean             =   6.8440128147126E-13
(PID.TID 0000.0001) %MON dynstat_eta_sd               =   2.8172480724150E+02
(PID.TID 0000.0001) %MON dynstat_eta_del2             =   2.4777720395706E+00
(PID.TID 0000.0001) %MON dynstat_uvel_max             =   1.2407446521219E+01
(PID.TID 0000.0001) %MON dynstat_uvel_min             =  -1.2407446521219E+01
(PID.TID 0000.0001) %MON dynstat_uvel_mean            =   1.0763467364550E-01
(PID.TID 0000.0001) %MON dynstat_uvel_sd              =   3.3654391742262E+00
(PID.TID 0000.0001) %MON dynstat_uvel_del2            =   2.0519167381935E-02
(PID.TID 0000.0001) %MON dynstat_vvel_max             =   1.2407446521219E+01
(PID.TID 0000.0001) %MON dynstat_vvel_min             =  -1.2407446521219E+01
(PID.TID 0000.0001) %MON dynstat_vvel_mean            =   1.0763467364550E-01
(PID.TID 0000.0001) %MON dynstat_vvel_sd              =   3.3654391742262E+00
(PID.TID 0000.0001) %MON dynstat_vvel_del2            =   2.0519167381935E-02
(PID.TID 0000.0001) %MON dynstat_wvel_max             =   2.8614323056397E-01
(PID.TID 0000.0001) %MON dynstat_wvel_min             =  -1.8768331920720E-01
(PID.TID 0000.0001) %MON dynstat_wvel_mean            =   5.6990019155629E-17
(PID.TID 0000.0001) %MON dynstat_wvel_sd              =   1.2283818914323E-01
(PID.TID 0000.0001) %MON dynstat_wvel_del2            =   2.4658749460945E-03
(PID.TID 0000.0001) %MON dynstat_theta_max            =   4.2087290662729E+02
(PID.TID 0000.0001) %MON dynstat_theta_min            =   2.5507829145543E+02
(PID.TID 0000.0001) %MON dynstat_theta_mean           =   3.1873903205931E+02
(PID.TID 0000.0001) %MON dynstat_theta_sd             =   4.5604842235022E+01
(PID.TID 0000.0001) %MON dynstat_theta_del2           =   4.8214854505083E-02
(PID.TID 0000.0001) %MON dynstat_salt_max             =   0.0000000000000E+00
(PID.TID 0000.0001) %MON dynstat_salt_min             =   0.0000000000000E+00
(PID.TID 0000.0001) %MON dynstat_salt_mean            =   0.0000000000000E+00
(PID.TID 0000.0001) %MON dynstat_salt_sd              =   0.0000000000000E+00
(PID.TID 0000.0001) %MON dynstat_salt_del2            =   0.0000000000000E+00
(PID.TID 0000.0001) %MON advcfl_uvel_max              =   6.1752078674475E-02
(PID.TID 0000.0001) %MON advcfl_vvel_max              =   6.1752078674474E-02
(PID.TID 0000.0001) %MON advcfl_wvel_max              =   3.4337187667677E-02
(PID.TID 0000.0001) %MON advcfl_W_hf_max              =   1.7074925926717E-02
(PID.TID 0000.0001) %MON pe_b_mean                    =   3.9684433507631E-01
(PID.TID 0000.0001) %MON ke_max                       =   8.8059523726748E+01
(PID.TID 0000.0001) %MON ke_mean                      =   1.1335658490110E+01
(PID.TID 0000.0001) %MON ke_vol                       =   5.0990436378172E+19
(PID.TID 0000.0001) %MON vort_r_min                   =  -1.4226373775551E-06
(PID.TID 0000.0001) %MON vort_r_max                   =   1.4226373775551E-06
(PID.TID 0000.0001) %MON vort_a_mean                  =   6.1283879344628E-21
(PID.TID 0000.0001) %MON vort_a_sd                    =   8.4288388603797E-05
(PID.TID 0000.0001) %MON vort_p_mean                  =   6.1283879344628E-21
(PID.TID 0000.0001) %MON vort_p_sd                    =   8.4288388603797E-05
(PID.TID 0000.0001) %MON surfExpan_theta_mean         =  -2.6937261770006E+00
(PID.TID 0000.0001) %MON surfExpan_salt_mean          =   0.0000000000000E+00
(PID.TID 0000.0001) %MON surfExpan_Heat_mean          =  -2.7167737221765E+02
(PID.TID 0000.0001) %MON En_Budget_T2PE_mean          =   7.3855229249605E+01
(PID.TID 0000.0001) // =======================================================
(PID.TID 0000.0001) // End MONITOR dynamic field statistics
(PID.TID 0000.0001) // =======================================================
 cg2d: Sum(rhs),rhsMax =  -4.94537744089030E-12  2.11326308433634E+03
(PID.TID 0000.0001)                    cg2d_init_res =    9.71546738139954E+00
(PID.TID 0000.0001)                       cg2d_iters =    17
(PID.TID 0000.0001)                         cg2d_res =    4.67961834025824E-13
(PID.TID 0000.0001) // =======================================================
(PID.TID 0000.0001) // Begin MONITOR dynamic field statistics
(PID.TID 0000.0001) // =======================================================
(PID.TID 0000.0001) %MON time_tsnumber                =                     6
(PID.TID 0000.0001) %MON time_secondsf                =   3.6000000000000E+03
(PID.TID 0000.0001) %MON dynstat_eta_max              =   7.2864481083921E+02
(PID.TID 0000.0001) %MON dynstat_eta_min              =  -4.7630640424229E+02
(PID.TID 0000.0001) %MON dynstat_eta_mean             =   1.3302447442681E-12
(PID.TID 0000.0001) %MON dynstat_eta_sd               =   3.8904012292716E+02
(PID.TID 0000.0001) %MON dynstat_eta_del2             =   2.7550752950331E+00
(PID.TID 0000.0001) %MON dynstat_uvel_max             =   1.4625154541581E+01
(PID.TID 0000.0001) %MON dynstat_uvel_min             =  -1.4625154541581E+01
(PID.TID 0000.0001) %MON dynstat_uvel_mean            =   1.5424055197126E-01
(PID.TID 0000.0001) %MON dynstat_uvel_sd              =   3.9911237049728E+00
(PID.TID 0000.0001) %MON dynstat_uvel_del2            =   2.2486217015158E-02
(PID.TID 0000.0001) %MON dynstat_vvel_max             =   1.4625154541581E+01
(PID.TID 0000.0001) %MON dynstat_vvel_min             =  -1.4625154541581E+01
(PID.TID 0000.0001) %MON dynstat_vvel_mean            =   1.5424055197126E-01
(PID.TID 0000.0001) %MON dynstat_vvel_sd              =   3.9911237049728E+00
(PID.TID 0000.0001) %MON dynstat_vvel_del2            =   2.2486217015158E-02
(PID.TID 0000.0001) %MON dynstat_wvel_max             =   3.3450905825786E-01
(PID.TID 0000.0001) %MON dynstat_wvel_min             =  -2.2148043477462E-01
(PID.TID 0000.0001) %MON dynstat_wvel_mean            =  -7.3272881771524E-17
(PID.TID 0000.0001) %MON dynstat_wvel_sd              =   1.4413773971962E-01
(PID.TID 0000.0001) %MON dynstat_wvel_del2            =   2.2979087187325E-03
(PID.TID 0000.0001) %MON dynstat_theta_max            =   4.2121620094622E+02
(PID.TID 0000.0001) %MON dynstat_theta_min            =   2.5507835411440E+02
(PID.TID 0000.0001) %MON dynstat_theta_mean           =   3.1875975858900E+02
(PID.TID 0000.0001) %MON dynstat_theta_sd             =   4.5592220859104E+01
(PID.TID 0000.0001) %MON dynstat_theta_del2           =   4.8951102301771E-02
(PID.TID 0000.0001) %MON dynstat_salt_max             =   0.0000000000000E+00
(PID.TID 0000.0001) %MON dynstat_salt_min             =   0.0000000000000E+00
(PID.TID 0000.0001) %MON dynstat_salt_mean            =   0.0000000000000E+00
(PID.TID 0000.0001) %MON dynstat_salt_sd              =   0.0000000000000E+00
(PID.TID 0000.0001) %MON dynstat_salt_del2            =   0.0000000000000E+00
(PID.TID 0000.0001) %MON advcfl_uvel_max              =   7.3882414257746E-02
(PID.TID 0000.0001) %MON advcfl_vvel_max              =   7.3882414257746E-02
(PID.TID 0000.0001) %MON advcfl_wvel_max              =   4.0141086990944E-02
(PID.TID 0000.0001) %MON advcfl_W_hf_max              =   1.9980741357893E-02
(PID.TID 0000.0001) %MON pe_b_mean                    =   7.5676108623588E-01
(PID.TID 0000.0001) %MON ke_max                       =   1.2312190137356E+02
(PID.TID 0000.0001) %MON ke_mean                      =   1.5949920450165E+01
(PID.TID 0000.0001) %MON ke_vol                       =   5.0990436378172E+19
(PID.TID 0000.0001) %MON vort_r_min                   =  -1.8024303680150E-06
(PID.TID 0000.0001) %MON vort_r_max                   =   1.8024303680150E-06
(PID.TID 0000.0001) %MON vort_a_mean                  =  -2.6964906911636E-20
(PID.TID 0000.0001) %MON vort_a_sd                    =   8.4326319508667E-05
(PID.TID 0000.0001) %MON vort_p_mean                  =  -2.6964906911636E-20
(PID.TID 0000.0001) %MON vort_p_sd                    =   8.4326319508667E-05
(PID.TID 0000.0001) %MON surfExpan_theta_mean         =  -3.1691861844792E+00
(PID.TID 0000.0001) %MON surfExpan_salt_mean          =   0.0000000000000E+00
(PID.TID 0000.0001) %MON surfExpan_Heat_mean          =  -3.1963017697163E+02
(PID.TID 0000.0001) %MON En_Budget_T2PE_mean          =   8.6854945295038E+01
(PID.TID 0000.0001) // =======================================================
(PID.TID 0000.0001) // End MONITOR dynamic field statistics
(PID.TID 0000.0001) // =======================================================
 cg2d: Sum(rhs),rhsMax =  -5.57065504835919E-12  2.77176181846528E+03
(PID.TID 0000.0001)                    cg2d_init_res =    8.43731574060633E+00
(PID.TID 0000.0001)                       cg2d_iters =    17
(PID.TID 0000.0001)                         cg2d_res =    3.32956127667737E-13
(PID.TID 0000.0001) // =======================================================
(PID.TID 0000.0001) // Begin MONITOR dynamic field statistics
(PID.TID 0000.0001) // =======================================================
(PID.TID 0000.0001) %MON time_tsnumber                =                     7
(PID.TID 0000.0001) %MON time_secondsf                =   4.2000000000000E+03
(PID.TID 0000.0001) %MON dynstat_eta_max              =   9.5574053805899E+02
(PID.TID 0000.0001) %MON dynstat_eta_min              =  -6.2836674129364E+02
(PID.TID 0000.0001) %MON dynstat_eta_mean             =   1.4137866847294E-12
(PID.TID 0000.0001) %MON dynstat_eta_sd               =   5.1125470612009E+02
(PID.TID 0000.0001) %MON dynstat_eta_del2             =   3.0460918735957E+00
(PID.TID 0000.0001) %MON dynstat_uvel_max             =   1.6751061736288E+01
(PID.TID 0000.0001) %MON dynstat_uvel_min             =  -1.6751061736288E+01
(PID.TID 0000.0001) %MON dynstat_uvel_mean            =   2.0775181591174E-01
(PID.TID 0000.0001) %MON dynstat_uvel_sd              =   4.5943321316364E+00
(PID.TID 0000.0001) %MON dynstat_uvel_del2            =   2.4221843574123E-02
(PID.TID 0000.0001) %MON dynstat_vvel_max             =   1.6751061736288E+01
(PID.TID 0000.0001) %MON dynstat_vvel_min             =  -1.6751061736288E+01
(PID.TID 0000.0001) %MON dynstat_vvel_mean            =   2.0775181591175E-01
(PID.TID 0000.0001) %MON dynstat_vvel_sd              =   4.5943321316364E+00
(PID.TID 0000.0001) %MON dynstat_vvel_del2            =   2.4221843574123E-02
(PID.TID 0000.0001) %MON dynstat_wvel_max             =   3.7849287771749E-01
(PID.TID 0000.0001) %MON dynstat_wvel_min             =  -2.5346246689167E-01
(PID.TID 0000.0001) %MON dynstat_wvel_mean            =   3.5279535667771E-17
(PID.TID 0000.0001) %MON dynstat_wvel_sd              =   1.6427440482558E-01
(PID.TID 0000.0001) %MON dynstat_wvel_del2            =   2.1624888134655E-03
(PID.TID 0000.0001) %MON dynstat_theta_max            =   4.2158618576907E+02
(PID.TID 0000.0001) %MON dynstat_theta_min            =   2.5507843667682E+02
(PID.TID 0000.0001) %MON dynstat_theta_mean           =   3.1878303794610E+02
(PID.TID 0000.0001) %MON dynstat_theta_sd             =   4.5578013988362E+01
(PID.TID 0000.0001) %MON dynstat_theta_del2           =   4.9413139191141E-02
(PID.TID 0000.0001) %MON dynstat_salt_max             =   0.0000000000000E+00
(PID.TID 0000.0001) %MON dynstat_salt_min             =   0.0000000000000E+00
(PID.TID 0000.0001) %MON dynstat_salt_mean            =   0.0000000000000E+00
(PID.TID 0000.0001) %MON dynstat_salt_sd              =   0.0000000000000E+00
(PID.TID 0000.0001) %MON dynstat_salt_del2            =   0.0000000000000E+00
(PID.TID 0000.0001) %MON advcfl_uvel_max              =   8.5770788121393E-02
(PID.TID 0000.0001) %MON advcfl_vvel_max              =   8.5770788121393E-02
(PID.TID 0000.0001) %MON advcfl_wvel_max              =   4.5419145326098E-02
(PID.TID 0000.0001) %MON advcfl_W_hf_max              =   2.2633680756283E-02
(PID.TID 0000.0001) %MON pe_b_mean                    =   1.3069068726497E+00
(PID.TID 0000.0001) %MON ke_max                       =   1.6220851529203E+02
(PID.TID 0000.0001) %MON ke_mean                      =   2.1147184275315E+01
(PID.TID 0000.0001) %MON ke_vol                       =   5.0990436378172E+19
(PID.TID 0000.0001) %MON vort_r_min                   =  -2.1652304964920E-06
(PID.TID 0000.0001) %MON vort_r_max                   =   2.1652304964920E-06
(PID.TID 0000.0001) %MON vort_a_mean                  =  -1.2256775868926E-21
(PID.TID 0000.0001) %MON vort_a_sd                    =   8.4370277428546E-05
(PID.TID 0000.0001) %MON vort_p_mean                  =  -1.2256775868926E-21
(PID.TID 0000.0001) %MON vort_p_sd                    =   8.4370277428546E-05
(PID.TID 0000.0001) %MON surfExpan_theta_mean         =  -3.6134824357495E+00
(PID.TID 0000.0001) %MON surfExpan_salt_mean          =   0.0000000000000E+00
(PID.TID 0000.0001) %MON surfExpan_Heat_mean          =  -3.6443994236719E+02
(PID.TID 0000.0001) %MON En_Budget_T2PE_mean          =   9.9013861100746E+01
(PID.TID 0000.0001) // =======================================================
(PID.TID 0000.0001) // End MONITOR dynamic field statistics
(PID.TID 0000.0001) // =======================================================
 cg2d: Sum(rhs),rhsMax =  -5.45696821063757E-12  3.49818593219634E+03
(PID.TID 0000.0001)                    cg2d_init_res =    7.43960809223984E+00
(PID.TID 0000.0001)                       cg2d_iters =    17
(PID.TID 0000.0001)                         cg2d_res =    2.25449646319308E-13
(PID.TID 0000.0001) // =======================================================
(PID.TID 0000.0001) // Begin MONITOR dynamic field statistics
(PID.TID 0000.0001) // =======================================================
(PID.TID 0000.0001) %MON time_tsnumber                =                     8
(PID.TID 0000.0001) %MON time_secondsf                =   4.8000000000000E+03
(PID.TID 0000.0001) %MON dynstat_eta_max              =   1.2062922530674E+03
(PID.TID 0000.0001) %MON dynstat_eta_min              =  -7.9835464278255E+02
(PID.TID 0000.0001) %MON dynstat_eta_mean             =   1.4780497158534E-12
(PID.TID 0000.0001) %MON dynstat_eta_sd               =   6.4722217586986E+02
(PID.TID 0000.0001) %MON dynstat_eta_del2             =   3.3205143144363E+00
(PID.TID 0000.0001) %MON dynstat_uvel_max             =   1.8815526444560E+01
(PID.TID 0000.0001) %MON dynstat_uvel_min             =  -1.8815526444561E+01
(PID.TID 0000.0001) %MON dynstat_uvel_mean            =   2.6758320832842E-01
(PID.TID 0000.0001) %MON dynstat_uvel_sd              =   5.1727218431570E+00
(PID.TID 0000.0001) %MON dynstat_uvel_del2            =   2.6000780727236E-02
(PID.TID 0000.0001) %MON dynstat_vvel_max             =   1.8815526444560E+01
(PID.TID 0000.0001) %MON dynstat_vvel_min             =  -1.8815526444560E+01
(PID.TID 0000.0001) %MON dynstat_vvel_mean            =   2.6758320832842E-01
(PID.TID 0000.0001) %MON dynstat_vvel_sd              =   5.1727218431570E+00
(PID.TID 0000.0001) %MON dynstat_vvel_del2            =   2.6000780727235E-02
(PID.TID 0000.0001) %MON dynstat_wvel_max             =   4.1758618972475E-01
(PID.TID 0000.0001) %MON dynstat_wvel_min             =  -2.8386315511184E-01
(PID.TID 0000.0001) %MON dynstat_wvel_mean            =   9.4983365259382E-17
(PID.TID 0000.0001) %MON dynstat_wvel_sd              =   1.8312924213630E-01
(PID.TID 0000.0001) %MON dynstat_wvel_del2            =   2.1087355649986E-03
(PID.TID 0000.0001) %MON dynstat_theta_max            =   4.2192724485981E+02
(PID.TID 0000.0001) %MON dynstat_theta_min            =   2.5507854805299E+02
(PID.TID 0000.0001) %MON dynstat_theta_mean           =   3.1880864675727E+02
(PID.TID 0000.0001) %MON dynstat_theta_sd             =   4.5562349141010E+01
(PID.TID 0000.0001) %MON dynstat_theta_del2           =   4.9638293463565E-02
(PID.TID 0000.0001) %MON dynstat_salt_max             =   0.0000000000000E+00
(PID.TID 0000.0001) %MON dynstat_salt_min             =   0.0000000000000E+00
(PID.TID 0000.0001) %MON dynstat_salt_mean            =   0.0000000000000E+00
(PID.TID 0000.0001) %MON dynstat_salt_sd              =   0.0000000000000E+00
(PID.TID 0000.0001) %MON dynstat_salt_del2            =   0.0000000000000E+00
(PID.TID 0000.0001) %MON advcfl_uvel_max              =   9.7308506244860E-02
(PID.TID 0000.0001) %MON advcfl_vvel_max              =   9.7308506244859E-02
(PID.TID 0000.0001) %MON advcfl_wvel_max              =   5.0110342766971E-02
(PID.TID 0000.0001) %MON advcfl_W_hf_max              =   2.5003896211236E-02
(PID.TID 0000.0001) %MON pe_b_mean                    =   2.0944827246886E+00
(PID.TID 0000.0001) %MON ke_max                       =   2.0428445238072E+02
(PID.TID 0000.0001) %MON ke_mean                      =   2.6823784519775E+01
(PID.TID 0000.0001) %MON ke_vol                       =   5.0990436378172E+19
(PID.TID 0000.0001) %MON vort_r_min                   =  -2.5848625720535E-06
(PID.TID 0000.0001) %MON vort_r_max                   =   2.5848625720535E-06
(PID.TID 0000.0001) %MON vort_a_mean                  =  -1.2256775868926E-21
(PID.TID 0000.0001) %MON vort_a_sd                    =   8.4419922671148E-05
(PID.TID 0000.0001) %MON vort_p_mean                  =  -1.2256775868926E-21
(PID.TID 0000.0001) %MON vort_p_sd                    =   8.4419922671148E-05
(PID.TID 0000.0001) %MON surfExpan_theta_mean         =  -4.0228533983696E+00
(PID.TID 0000.0001) %MON surfExpan_salt_mean          =   0.0000000000000E+00
(PID.TID 0000.0001) %MON surfExpan_Heat_mean          =  -4.0572729678963E+02
(PID.TID 0000.0001) %MON En_Budget_T2PE_mean          =   1.1024295024905E+02
(PID.TID 0000.0001) // =======================================================
(PID.TID 0000.0001) // End MONITOR dynamic field statistics
(PID.TID 0000.0001) // =======================================================
 cg2d: Sum(rhs),rhsMax =  -5.51381162949838E-12  4.28321773343321E+03
(PID.TID 0000.0001)                    cg2d_init_res =    6.63639971925282E+00
(PID.TID 0000.0001)                       cg2d_iters =    17
(PID.TID 0000.0001)                         cg2d_res =    1.69122401168078E-13
(PID.TID 0000.0001) // =======================================================
(PID.TID 0000.0001) // Begin MONITOR dynamic field statistics
(PID.TID 0000.0001) // =======================================================
(PID.TID 0000.0001) %MON time_tsnumber                =                     9
(PID.TID 0000.0001) %MON time_secondsf                =   5.4000000000000E+03
(PID.TID 0000.0001) %MON dynstat_eta_max              =   1.4770987948580E+03
(PID.TID 0000.0001) %MON dynstat_eta_min              =  -9.8489295080660E+02
(PID.TID 0000.0001) %MON dynstat_eta_mean             =   1.9150383274971E-12
(PID.TID 0000.0001) %MON dynstat_eta_sd               =   7.9568507132654E+02
(PID.TID 0000.0001) %MON dynstat_eta_del2             =   3.6139974121076E+00
(PID.TID 0000.0001) %MON dynstat_uvel_max             =   2.0785019069932E+01
(PID.TID 0000.0001) %MON dynstat_uvel_min             =  -2.0785019069933E+01
(PID.TID 0000.0001) %MON dynstat_uvel_mean            =   3.3310362244394E-01
(PID.TID 0000.0001) %MON dynstat_uvel_sd              =   5.7242435591609E+00
(PID.TID 0000.0001) %MON dynstat_uvel_del2            =   2.7899747695106E-02
(PID.TID 0000.0001) %MON dynstat_vvel_max             =   2.0785019069932E+01
(PID.TID 0000.0001) %MON dynstat_vvel_min             =  -2.0785019069932E+01
(PID.TID 0000.0001) %MON dynstat_vvel_mean            =   3.3310362244393E-01
(PID.TID 0000.0001) %MON dynstat_vvel_sd              =   5.7242435591609E+00
(PID.TID 0000.0001) %MON dynstat_vvel_del2            =   2.7899747695106E-02
(PID.TID 0000.0001) %MON dynstat_wvel_max             =   4.5134423313207E-01
(PID.TID 0000.0001) %MON dynstat_wvel_min             =  -3.1215423024450E-01
(PID.TID 0000.0001) %MON dynstat_wvel_mean            =   1.8996673051876E-17
(PID.TID 0000.0001) %MON dynstat_wvel_sd              =   2.0058425286605E-01
(PID.TID 0000.0001) %MON dynstat_wvel_del2            =   2.0947560217026E-03
(PID.TID 0000.0001) %MON dynstat_theta_max            =   4.2223769678909E+02
(PID.TID 0000.0001) %MON dynstat_theta_min            =   2.5507869957425E+02
(PID.TID 0000.0001) %MON dynstat_theta_mean           =   3.1883634213225E+02
(PID.TID 0000.0001) %MON dynstat_theta_sd             =   4.5545366459223E+01
(PID.TID 0000.0001) %MON dynstat_theta_del2           =   4.9689530733692E-02
(PID.TID 0000.0001) %MON dynstat_salt_max             =   0.0000000000000E+00
(PID.TID 0000.0001) %MON dynstat_salt_min             =   0.0000000000000E+00
(PID.TID 0000.0001) %MON dynstat_salt_mean            =   0.0000000000000E+00
(PID.TID 0000.0001) %MON dynstat_salt_sd              =   0.0000000000000E+00
(PID.TID 0000.0001) %MON dynstat_salt_del2            =   0.0000000000000E+00
(PID.TID 0000.0001) %MON advcfl_uvel_max              =   1.0838625914769E-01
(PID.TID 0000.0001) %MON advcfl_vvel_max              =   1.0838625914769E-01
(PID.TID 0000.0001) %MON advcfl_wvel_max              =   5.4161307975849E-02
(PID.TID 0000.0001) %MON advcfl_W_hf_max              =   2.7065104068810E-02
(PID.TID 0000.0001) %MON pe_b_mean                    =   3.1655736636596E+00
(PID.TID 0000.0001) %MON ke_max                       =   2.4827057772331E+02
(PID.TID 0000.0001) %MON ke_mean                      =   3.2871993717706E+01
(PID.TID 0000.0001) %MON ke_vol                       =   5.0990436378172E+19
(PID.TID 0000.0001) %MON vort_r_min                   =  -3.2292736831712E-06
(PID.TID 0000.0001) %MON vort_r_max                   =   3.2292736831712E-06
(PID.TID 0000.0001) %MON vort_a_mean                  =   2.5739229324744E-20
(PID.TID 0000.0001) %MON vort_a_sd                    =   8.4474872801196E-05
(PID.TID 0000.0001) %MON vort_p_mean                  =   2.5739229324744E-20
(PID.TID 0000.0001) %MON vort_p_sd                    =   8.4474872801196E-05
(PID.TID 0000.0001) %MON surfExpan_theta_mean         =  -4.3938591010187E+00
(PID.TID 0000.0001) %MON surfExpan_salt_mean          =   0.0000000000000E+00
(PID.TID 0000.0001) %MON surfExpan_Heat_mean          =  -4.4314529986435E+02
(PID.TID 0000.0001) %MON En_Budget_T2PE_mean          =   1.2046393082159E+02
(PID.TID 0000.0001) // =======================================================
(PID.TID 0000.0001) // End MONITOR dynamic field statistics
(PID.TID 0000.0001) // =======================================================
 cg2d: Sum(rhs),rhsMax =  -4.77484718430787E-12  5.11688778588875E+03
(PID.TID 0000.0001)                    cg2d_init_res =    5.97340740617815E+00
(PID.TID 0000.0001)                       cg2d_iters =    16
(PID.TID 0000.0001)                         cg2d_res =    7.97772933400189E-13
(PID.TID 0000.0001) // =======================================================
(PID.TID 0000.0001) // Begin MONITOR dynamic field statistics
(PID.TID 0000.0001) // =======================================================
(PID.TID 0000.0001) %MON time_tsnumber                =                    10
(PID.TID 0000.0001) %MON time_secondsf                =   6.0000000000000E+03
(PID.TID 0000.0001) %MON dynstat_eta_max              =   1.7647368402836E+03
(PID.TID 0000.0001) %MON dynstat_eta_min              =  -1.1864750708421E+03
(PID.TID 0000.0001) %MON dynstat_eta_mean             =  -4.4984121786844E-13
(PID.TID 0000.0001) %MON dynstat_eta_sd               =   9.5528379555372E+02
(PID.TID 0000.0001) %MON dynstat_eta_del2             =   3.9214267609612E+00
(PID.TID 0000.0001) %MON dynstat_uvel_max             =   2.2662875411162E+01
(PID.TID 0000.0001) %MON dynstat_uvel_min             =  -2.2662875411162E+01
(PID.TID 0000.0001) %MON dynstat_uvel_mean            =   4.0364242344957E-01
(PID.TID 0000.0001) %MON dynstat_uvel_sd              =   6.2471694879040E+00
(PID.TID 0000.0001) %MON dynstat_uvel_del2            =   2.9940869079439E-02
(PID.TID 0000.0001) %MON dynstat_vvel_max             =   2.2662875411162E+01
(PID.TID 0000.0001) %MON dynstat_vvel_min             =  -2.2662875411162E+01
(PID.TID 0000.0001) %MON dynstat_vvel_mean            =   4.0364242344957E-01
(PID.TID 0000.0001) %MON dynstat_vvel_sd              =   6.2471694879040E+00
(PID.TID 0000.0001) %MON dynstat_vvel_del2            =   2.9940869079439E-02
(PID.TID 0000.0001) %MON dynstat_wvel_max             =   4.7991985282353E-01
(PID.TID 0000.0001) %MON dynstat_wvel_min             =  -3.3813986980840E-01
(PID.TID 0000.0001) %MON dynstat_wvel_mean            =   2.9851914795806E-17
(PID.TID 0000.0001) %MON dynstat_wvel_sd              =   2.1652772228281E-01
(PID.TID 0000.0001) %MON dynstat_wvel_del2            =   2.1275387450633E-03
(PID.TID 0000.0001) %MON dynstat_theta_max            =   4.2252047534277E+02
(PID.TID 0000.0001) %MON dynstat_theta_min            =   2.5507890441205E+02
(PID.TID 0000.0001) %MON dynstat_theta_mean           =   3.1886586386846E+02
(PID.TID 0000.0001) %MON dynstat_theta_sd             =   4.5527217829960E+01
(PID.TID 0000.0001) %MON dynstat_theta_del2           =   4.9709024015621E-02
(PID.TID 0000.0001) %MON dynstat_salt_max             =   0.0000000000000E+00
(PID.TID 0000.0001) %MON dynstat_salt_min             =   0.0000000000000E+00
(PID.TID 0000.0001) %MON dynstat_salt_mean            =   0.0000000000000E+00
(PID.TID 0000.0001) %MON dynstat_salt_sd              =   0.0000000000000E+00
(PID.TID 0000.0001) %MON dynstat_salt_del2            =   0.0000000000000E+00
(PID.TID 0000.0001) %MON advcfl_uvel_max              =   1.1891128369665E-01
(PID.TID 0000.0001) %MON advcfl_vvel_max              =   1.1891128369665E-01
(PID.TID 0000.0001) %MON advcfl_wvel_max              =   5.7527608613718E-02
(PID.TID 0000.0001) %MON advcfl_W_hf_max              =   2.8795191169412E-02
(PID.TID 0000.0001) %MON pe_b_mean                    =   4.5628356502376E+00
(PID.TID 0000.0001) %MON ke_max                       =   2.9315309189102E+02
(PID.TID 0000.0001) %MON ke_mean                      =   3.9183025602709E+01
(PID.TID 0000.0001) %MON ke_vol                       =   5.0990436378172E+19
(PID.TID 0000.0001) %MON vort_r_min                   =  -3.9265140130683E-06
(PID.TID 0000.0001) %MON vort_r_max                   =   3.9265140130683E-06
(PID.TID 0000.0001) %MON vort_a_mean                  =   1.2256775868926E-21
(PID.TID 0000.0001) %MON vort_a_sd                    =   8.4534704073103E-05
(PID.TID 0000.0001) %MON vort_p_mean                  =   1.2256775868926E-21
(PID.TID 0000.0001) %MON vort_p_sd                    =   8.4534704073103E-05
(PID.TID 0000.0001) %MON surfExpan_theta_mean         =  -4.7234091450465E+00
(PID.TID 0000.0001) %MON surfExpan_salt_mean          =   0.0000000000000E+00
(PID.TID 0000.0001) %MON surfExpan_Heat_mean          =  -4.7638226757847E+02
(PID.TID 0000.0001) %MON En_Budget_T2PE_mean          =   1.2961019315441E+02
(PID.TID 0000.0001) // =======================================================
(PID.TID 0000.0001) // End MONITOR dynamic field statistics
(PID.TID 0000.0001) // =======================================================
 cg2d: Sum(rhs),rhsMax =   1.30739863379858E-12  5.98872383574508E+03
(PID.TID 0000.0001)                    cg2d_init_res =    5.41464749384530E+00
(PID.TID 0000.0001)                       cg2d_iters =    16
(PID.TID 0000.0001)                         cg2d_res =    6.51897903119188E-13
(PID.TID 0000.0001) // =======================================================
(PID.TID 0000.0001) // Begin MONITOR dynamic field statistics
(PID.TID 0000.0001) // =======================================================
(PID.TID 0000.0001) %MON time_tsnumber                =                    11
(PID.TID 0000.0001) %MON time_secondsf                =   6.6000000000000E+03
(PID.TID 0000.0001) %MON dynstat_eta_max              =   2.0656137985780E+03
(PID.TID 0000.0001) %MON dynstat_eta_min              =  -1.4014693848019E+03
(PID.TID 0000.0001) %MON dynstat_eta_mean             =  -3.4959088931490E-12
(PID.TID 0000.0001) %MON dynstat_eta_sd               =   1.1245669851686E+03
(PID.TID 0000.0001) %MON dynstat_eta_del2             =   4.2914516166839E+00
(PID.TID 0000.0001) %MON dynstat_uvel_max             =   2.4436878071409E+01
(PID.TID 0000.0001) %MON dynstat_uvel_min             =  -2.4436878071409E+01
(PID.TID 0000.0001) %MON dynstat_uvel_mean            =   4.7849602068662E-01
(PID.TID 0000.0001) %MON dynstat_uvel_sd              =   6.7401188088106E+00
(PID.TID 0000.0001) %MON dynstat_uvel_del2            =   3.2014493533956E-02
(PID.TID 0000.0001) %MON dynstat_vvel_max             =   2.4436878071409E+01
(PID.TID 0000.0001) %MON dynstat_vvel_min             =  -2.4436878071409E+01
(PID.TID 0000.0001) %MON dynstat_vvel_mean            =   4.7849602068662E-01
(PID.TID 0000.0001) %MON dynstat_vvel_sd              =   6.7401188088106E+00
(PID.TID 0000.0001) %MON dynstat_vvel_del2            =   3.2014493533956E-02
(PID.TID 0000.0001) %MON dynstat_wvel_max             =   5.0294967979946E-01
(PID.TID 0000.0001) %MON dynstat_wvel_min             =  -3.6162785360145E-01
(PID.TID 0000.0001) %MON dynstat_wvel_mean            =   8.4128123515453E-17
(PID.TID 0000.0001) %MON dynstat_wvel_sd              =   2.3085828532827E-01
(PID.TID 0000.0001) %MON dynstat_wvel_del2            =   2.2127741867692E-03
(PID.TID 0000.0001) %MON dynstat_theta_max            =   4.2278160607512E+02
(PID.TID 0000.0001) %MON dynstat_theta_min            =   2.5507917664991E+02
(PID.TID 0000.0001) %MON dynstat_theta_mean           =   3.1889693679930E+02
(PID.TID 0000.0001) %MON dynstat_theta_sd             =   4.5508065887011E+01
(PID.TID 0000.0001) %MON dynstat_theta_del2           =   4.9845147786401E-02
(PID.TID 0000.0001) %MON dynstat_salt_max             =   0.0000000000000E+00
(PID.TID 0000.0001) %MON dynstat_salt_min             =   0.0000000000000E+00
(PID.TID 0000.0001) %MON dynstat_salt_mean            =   0.0000000000000E+00
(PID.TID 0000.0001) %MON dynstat_salt_sd              =   0.0000000000000E+00
(PID.TID 0000.0001) %MON dynstat_salt_del2            =   0.0000000000000E+00
(PID.TID 0000.0001) %MON advcfl_uvel_max              =   1.2881389633200E-01
(PID.TID 0000.0001) %MON advcfl_vvel_max              =   1.2881389633200E-01
(PID.TID 0000.0001) %MON advcfl_wvel_max              =   6.0175391334310E-02
(PID.TID 0000.0001) %MON advcfl_W_hf_max              =   3.0176980787968E-02
(PID.TID 0000.0001) %MON pe_b_mean                    =   6.3232545206560E+00
(PID.TID 0000.0001) %MON ke_max                       =   3.3805179673322E+02
(PID.TID 0000.0001) %MON ke_mean                      =   4.5650012586363E+01
(PID.TID 0000.0001) %MON ke_vol                       =   5.0990436378172E+19
(PID.TID 0000.0001) %MON vort_r_min                   =  -4.6696835030445E-06
(PID.TID 0000.0001) %MON vort_r_max                   =   4.6696835030445E-06
(PID.TID 0000.0001) %MON vort_a_mean                  =  -8.5797431082479E-21
(PID.TID 0000.0001) %MON vort_a_sd                    =   8.4598953087104E-05
(PID.TID 0000.0001) %MON vort_p_mean                  =  -8.5797431082479E-21
(PID.TID 0000.0001) %MON vort_p_sd                    =   8.4598953087104E-05
(PID.TID 0000.0001) %MON surfExpan_theta_mean         =  -5.0087879944700E+00
(PID.TID 0000.0001) %MON surfExpan_salt_mean          =   0.0000000000000E+00
(PID.TID 0000.0001) %MON surfExpan_Heat_mean          =  -5.0516432291872E+02
(PID.TID 0000.0001) %MON En_Budget_T2PE_mean          =   1.3762735623502E+02
(PID.TID 0000.0001) // =======================================================
(PID.TID 0000.0001) // End MONITOR dynamic field statistics
(PID.TID 0000.0001) // =======================================================
 cg2d: Sum(rhs),rhsMax =   6.87805368215777E-12  6.88792835990933E+03
(PID.TID 0000.0001)                    cg2d_init_res =    4.93525473289400E+00
(PID.TID 0000.0001)                       cg2d_iters =    16
(PID.TID 0000.0001)                         cg2d_res =    5.51392738794247E-13
(PID.TID 0000.0001) // =======================================================
(PID.TID 0000.0001) // Begin MONITOR dynamic field statistics
(PID.TID 0000.0001) // =======================================================
(PID.TID 0000.0001) %MON time_tsnumber                =                    12
(PID.TID 0000.0001) %MON time_secondsf                =   7.2000000000000E+03
(PID.TID 0000.0001) %MON dynstat_eta_max              =   2.3760313306814E+03
(PID.TID 0000.0001) %MON dynstat_eta_min              =  -1.6281177485478E+03
(PID.TID 0000.0001) %MON dynstat_eta_mean             =  -6.6576500244529E-12
(PID.TID 0000.0001) %MON dynstat_eta_sd               =   1.3020030693143E+03
(PID.TID 0000.0001) %MON dynstat_eta_del2             =   4.7788311794577E+00
(PID.TID 0000.0001) %MON dynstat_uvel_max             =   2.6059092620070E+01
(PID.TID 0000.0001) %MON dynstat_uvel_min             =  -2.6059092620070E+01
(PID.TID 0000.0001) %MON dynstat_uvel_mean            =   5.5693472520182E-01
(PID.TID 0000.0001) %MON dynstat_uvel_sd              =   7.2020792187772E+00
(PID.TID 0000.0001) %MON dynstat_uvel_del2            =   3.4013286935024E-02
(PID.TID 0000.0001) %MON dynstat_vvel_max             =   2.6059092620069E+01
(PID.TID 0000.0001) %MON dynstat_vvel_min             =  -2.6059092620069E+01
(PID.TID 0000.0001) %MON dynstat_vvel_mean            =   5.5693472520182E-01
(PID.TID 0000.0001) %MON dynstat_vvel_sd              =   7.2020792187772E+00
(PID.TID 0000.0001) %MON dynstat_vvel_del2            =   3.4013286935024E-02
(PID.TID 0000.0001) %MON dynstat_wvel_max             =   5.1998698962629E-01
(PID.TID 0000.0001) %MON dynstat_wvel_min             =  -3.8242465592482E-01
(PID.TID 0000.0001) %MON dynstat_wvel_mean            =   2.1710483487859E-17
(PID.TID 0000.0001) %MON dynstat_wvel_sd              =   2.4348771244600E-01
(PID.TID 0000.0001) %MON dynstat_wvel_del2            =   2.3048858508487E-03
(PID.TID 0000.0001) %MON dynstat_theta_max            =   4.2302850949688E+02
(PID.TID 0000.0001) %MON dynstat_theta_min            =   2.5507953009316E+02
(PID.TID 0000.0001) %MON dynstat_theta_mean           =   3.1892927326766E+02
(PID.TID 0000.0001) %MON dynstat_theta_sd             =   4.5488082862965E+01
(PID.TID 0000.0001) %MON dynstat_theta_del2           =   5.0038995972225E-02
(PID.TID 0000.0001) %MON dynstat_salt_max             =   0.0000000000000E+00
(PID.TID 0000.0001) %MON dynstat_salt_min             =   0.0000000000000E+00
(PID.TID 0000.0001) %MON dynstat_salt_mean            =   0.0000000000000E+00
(PID.TID 0000.0001) %MON dynstat_salt_sd              =   0.0000000000000E+00
(PID.TID 0000.0001) %MON dynstat_salt_del2            =   0.0000000000000E+00
(PID.TID 0000.0001) %MON advcfl_uvel_max              =   1.3804732160538E-01
(PID.TID 0000.0001) %MON advcfl_vvel_max              =   1.3804732160538E-01
(PID.TID 0000.0001) %MON advcfl_wvel_max              =   6.2083506696857E-02
(PID.TID 0000.0001) %MON advcfl_W_hf_max              =   3.1199219377577E-02
(PID.TID 0000.0001) %MON pe_b_mean                    =   8.4760599625191E+00
(PID.TID 0000.0001) %MON ke_max                       =   3.8224543460257E+02
(PID.TID 0000.0001) %MON ke_mean                      =   5.2170852810501E+01
(PID.TID 0000.0001) %MON ke_vol                       =   5.0990436378172E+19
(PID.TID 0000.0001) %MON vort_r_min                   =  -5.4513448968337E-06
(PID.TID 0000.0001) %MON vort_r_max                   =   5.4513448968337E-06
(PID.TID 0000.0001) %MON vort_a_mean                  =  -8.5797431082479E-21
(PID.TID 0000.0001) %MON vort_a_sd                    =   8.4667118699669E-05
(PID.TID 0000.0001) %MON vort_p_mean                  =  -8.5797431082479E-21
(PID.TID 0000.0001) %MON vort_p_sd                    =   8.4667118699669E-05
(PID.TID 0000.0001) %MON surfExpan_theta_mean         =  -5.2476773233217E+00
(PID.TID 0000.0001) %MON surfExpan_salt_mean          =   0.0000000000000E+00
(PID.TID 0000.0001) %MON surfExpan_Heat_mean          =  -5.2925764972654E+02
(PID.TID 0000.0001) %MON En_Budget_T2PE_mean          =   1.4447347825875E+02
(PID.TID 0000.0001) // =======================================================
(PID.TID 0000.0001) // End MONITOR dynamic field statistics
(PID.TID 0000.0001) // =======================================================
 cg2d: Sum(rhs),rhsMax =   1.14823706098832E-11  7.80359352405774E+03
(PID.TID 0000.0001)                    cg2d_init_res =    4.51742835394689E+00
(PID.TID 0000.0001)                       cg2d_iters =    16
(PID.TID 0000.0001)                         cg2d_res =    4.72278787849579E-13
(PID.TID 0000.0001) // =======================================================
(PID.TID 0000.0001) // Begin MONITOR dynamic field statistics
(PID.TID 0000.0001) // =======================================================
(PID.TID 0000.0001) %MON time_tsnumber                =                    13
(PID.TID 0000.0001) %MON time_secondsf                =   7.8000000000000E+03
(PID.TID 0000.0001) %MON dynstat_eta_max              =   2.6922621769008E+03
(PID.TID 0000.0001) %MON dynstat_eta_min              =  -1.8645287583126E+03
(PID.TID 0000.0001) %MON dynstat_eta_mean             =  -1.0076443280253E-11
(PID.TID 0000.0001) %MON dynstat_eta_sd               =   1.4859928078599E+03
(PID.TID 0000.0001) %MON dynstat_eta_del2             =   5.2828646860071E+00
(PID.TID 0000.0001) %MON dynstat_uvel_max             =   2.7520333786421E+01
(PID.TID 0000.0001) %MON dynstat_uvel_min             =  -2.7520333786421E+01
(PID.TID 0000.0001) %MON dynstat_uvel_mean            =   6.3820978580137E-01
(PID.TID 0000.0001) %MON dynstat_uvel_sd              =   7.6324238537888E+00
(PID.TID 0000.0001) %MON dynstat_uvel_del2            =   3.5952697968974E-02
(PID.TID 0000.0001) %MON dynstat_vvel_max             =   2.7520333786421E+01
(PID.TID 0000.0001) %MON dynstat_vvel_min             =  -2.7520333786421E+01
(PID.TID 0000.0001) %MON dynstat_vvel_mean            =   6.3820978580137E-01
(PID.TID 0000.0001) %MON dynstat_vvel_sd              =   7.6324238537888E+00
(PID.TID 0000.0001) %MON dynstat_vvel_del2            =   3.5952697968973E-02
(PID.TID 0000.0001) %MON dynstat_wvel_max             =   5.3096345703668E-01
(PID.TID 0000.0001) %MON dynstat_wvel_min             =  -4.0033101296809E-01
(PID.TID 0000.0001) %MON dynstat_wvel_mean            =  -8.4128123515453E-17
(PID.TID 0000.0001) %MON dynstat_wvel_sd              =   2.5434250712319E-01
(PID.TID 0000.0001) %MON dynstat_wvel_del2            =   2.4392870191545E-03
(PID.TID 0000.0001) %MON dynstat_theta_max            =   4.2326845842226E+02
(PID.TID 0000.0001) %MON dynstat_theta_min            =   2.5507997695781E+02
(PID.TID 0000.0001) %MON dynstat_theta_mean           =   3.1896257570450E+02
(PID.TID 0000.0001) %MON dynstat_theta_sd             =   4.5467449283595E+01
(PID.TID 0000.0001) %MON dynstat_theta_del2           =   5.0246666352084E-02
(PID.TID 0000.0001) %MON dynstat_salt_max             =   0.0000000000000E+00
(PID.TID 0000.0001) %MON dynstat_salt_min             =   0.0000000000000E+00
(PID.TID 0000.0001) %MON dynstat_salt_mean            =   0.0000000000000E+00
(PID.TID 0000.0001) %MON dynstat_salt_sd              =   0.0000000000000E+00
(PID.TID 0000.0001) %MON dynstat_salt_del2            =   0.0000000000000E+00
(PID.TID 0000.0001) %MON advcfl_uvel_max              =   1.4658367552226E-01
(PID.TID 0000.0001) %MON advcfl_vvel_max              =   1.4658367552226E-01
(PID.TID 0000.0001) %MON advcfl_wvel_max              =   6.3246170690589E-02
(PID.TID 0000.0001) %MON advcfl_W_hf_max              =   3.1857807422201E-02
(PID.TID 0000.0001) %MON pe_b_mean                    =   1.1040873125056E+01
(PID.TID 0000.0001) %MON ke_max                       =   4.2516734143916E+02
(PID.TID 0000.0001) %MON ke_mean                      =   5.8650829969585E+01
(PID.TID 0000.0001) %MON ke_vol                       =   5.0990436378172E+19
(PID.TID 0000.0001) %MON vort_r_min                   =  -6.2636130829737E-06
(PID.TID 0000.0001) %MON vort_r_max                   =   6.2636130829737E-06
(PID.TID 0000.0001) %MON vort_a_mean                  =  -9.8054206951404E-21
(PID.TID 0000.0001) %MON vort_a_sd                    =   8.4738664246022E-05
(PID.TID 0000.0001) %MON vort_p_mean                  =  -9.8054206951404E-21
(PID.TID 0000.0001) %MON vort_p_sd                    =   8.4738664246022E-05
(PID.TID 0000.0001) %MON surfExpan_theta_mean         =  -5.4381751920876E+00
(PID.TID 0000.0001) %MON surfExpan_salt_mean          =   0.0000000000000E+00
(PID.TID 0000.0001) %MON surfExpan_Heat_mean          =  -5.4847042674942E+02
(PID.TID 0000.0001) %MON En_Budget_T2PE_mean          =   1.5011902722801E+02
(PID.TID 0000.0001) // =======================================================
(PID.TID 0000.0001) // End MONITOR dynamic field statistics
(PID.TID 0000.0001) // =======================================================
 cg2d: Sum(rhs),rhsMax =   1.52340362546965E-11  8.72496172869823E+03
(PID.TID 0000.0001)                    cg2d_init_res =    4.14802416960731E+00
(PID.TID 0000.0001)                       cg2d_iters =    16
(PID.TID 0000.0001)                         cg2d_res =    4.18024637402858E-13
(PID.TID 0000.0001) // =======================================================
(PID.TID 0000.0001) // Begin MONITOR dynamic field statistics
(PID.TID 0000.0001) // =======================================================
(PID.TID 0000.0001) %MON time_tsnumber                =                    14
(PID.TID 0000.0001) %MON time_secondsf                =   8.4000000000000E+03
(PID.TID 0000.0001) %MON dynstat_eta_max              =   3.0106421416346E+03
(PID.TID 0000.0001) %MON dynstat_eta_min              =  -2.1086747533440E+03
(PID.TID 0000.0001) %MON dynstat_eta_mean             =  -1.2595554100316E-11
(PID.TID 0000.0001) %MON dynstat_eta_sd               =   1.6748826867419E+03
(PID.TID 0000.0001) %MON dynstat_eta_del2             =   5.7988338609343E+00
(PID.TID 0000.0001) %MON dynstat_uvel_max             =   2.8816260553035E+01
(PID.TID 0000.0001) %MON dynstat_uvel_min             =  -2.8816260553035E+01
(PID.TID 0000.0001) %MON dynstat_uvel_mean            =   7.2156045651491E-01
(PID.TID 0000.0001) %MON dynstat_uvel_sd              =   8.0309231696606E+00
(PID.TID 0000.0001) %MON dynstat_uvel_del2            =   3.7899068043932E-02
(PID.TID 0000.0001) %MON dynstat_vvel_max             =   2.8816260553034E+01
(PID.TID 0000.0001) %MON dynstat_vvel_min             =  -2.8816260553034E+01
(PID.TID 0000.0001) %MON dynstat_vvel_mean            =   7.2156045651491E-01
(PID.TID 0000.0001) %MON dynstat_vvel_sd              =   8.0309231696606E+00
(PID.TID 0000.0001) %MON dynstat_vvel_del2            =   3.7899068043932E-02
(PID.TID 0000.0001) %MON dynstat_wvel_max             =   5.3595331239716E-01
(PID.TID 0000.0001) %MON dynstat_wvel_min             =  -4.1513970004707E-01
(PID.TID 0000.0001) %MON dynstat_wvel_mean            =  -2.1710483487859E-17
(PID.TID 0000.0001) %MON dynstat_wvel_sd              =   2.6336482090634E-01
(PID.TID 0000.0001) %MON dynstat_wvel_del2            =   2.5877527823816E-03
(PID.TID 0000.0001) %MON dynstat_theta_max            =   4.2350738989336E+02
(PID.TID 0000.0001) %MON dynstat_theta_min            =   2.5508052662530E+02
(PID.TID 0000.0001) %MON dynstat_theta_mean           =   3.1899653929119E+02
(PID.TID 0000.0001) %MON dynstat_theta_sd             =   4.5446352516172E+01
(PID.TID 0000.0001) %MON dynstat_theta_del2           =   5.0388712990336E-02
(PID.TID 0000.0001) %MON dynstat_salt_max             =   0.0000000000000E+00
(PID.TID 0000.0001) %MON dynstat_salt_min             =   0.0000000000000E+00
(PID.TID 0000.0001) %MON dynstat_salt_mean            =   0.0000000000000E+00
(PID.TID 0000.0001) %MON dynstat_salt_sd              =   0.0000000000000E+00
(PID.TID 0000.0001) %MON dynstat_salt_del2            =   0.0000000000000E+00
(PID.TID 0000.0001) %MON advcfl_uvel_max              =   1.5440818776641E-01
(PID.TID 0000.0001) %MON advcfl_vvel_max              =   1.5440818776641E-01
(PID.TID 0000.0001) %MON advcfl_wvel_max              =   6.3675995944801E-02
(PID.TID 0000.0001) %MON advcfl_W_hf_max              =   3.2157198743830E-02
(PID.TID 0000.0001) %MON pe_b_mean                    =   1.4026160071739E+01
(PID.TID 0000.0001) %MON ke_max                       =   4.6638296116245E+02
(PID.TID 0000.0001) %MON ke_mean                      =   6.5004921710643E+01
(PID.TID 0000.0001) %MON ke_vol                       =   5.0990436378172E+19
(PID.TID 0000.0001) %MON vort_r_min                   =  -7.0982798713097E-06
(PID.TID 0000.0001) %MON vort_r_max                   =   7.0982798713097E-06
(PID.TID 0000.0001) %MON vort_a_mean                  =   1.3482453455818E-20
(PID.TID 0000.0001) %MON vort_a_sd                    =   8.4813020144891E-05
(PID.TID 0000.0001) %MON vort_p_mean                  =   1.3482453455818E-20
(PID.TID 0000.0001) %MON vort_p_sd                    =   8.4813020144891E-05
(PID.TID 0000.0001) %MON surfExpan_theta_mean         =  -5.5788118310872E+00
(PID.TID 0000.0001) %MON surfExpan_salt_mean          =   0.0000000000000E+00
(PID.TID 0000.0001) %MON surfExpan_Heat_mean          =  -5.6265441948303E+02
(PID.TID 0000.0001) %MON En_Budget_T2PE_mean          =   1.5454670966810E+02
(PID.TID 0000.0001) // =======================================================
(PID.TID 0000.0001) // End MONITOR dynamic field statistics
(PID.TID 0000.0001) // =======================================================
 cg2d: Sum(rhs),rhsMax =   1.74509295902681E-11  9.64173417111393E+03
(PID.TID 0000.0001)                    cg2d_init_res =    3.81706005938681E+00
(PID.TID 0000.0001)                       cg2d_iters =    16
(PID.TID 0000.0001)                         cg2d_res =    3.76326862953239E-13
(PID.TID 0000.0001) // =======================================================
(PID.TID 0000.0001) // Begin MONITOR dynamic field statistics
(PID.TID 0000.0001) // =======================================================
(PID.TID 0000.0001) %MON time_tsnumber                =                    15
(PID.TID 0000.0001) %MON time_secondsf                =   9.0000000000000E+03
(PID.TID 0000.0001) %MON dynstat_eta_max              =   3.3276764449759E+03
(PID.TID 0000.0001) %MON dynstat_eta_min              =  -2.3583896178901E+03
(PID.TID 0000.0001) %MON dynstat_eta_mean             =  -1.5680179594271E-11
(PID.TID 0000.0001) %MON dynstat_eta_sd               =   1.8669790733094E+03
(PID.TID 0000.0001) %MON dynstat_eta_del2             =   6.3284422481875E+00
(PID.TID 0000.0001) %MON dynstat_uvel_max             =   2.9993138375679E+01
(PID.TID 0000.0001) %MON dynstat_uvel_min             =  -2.9993138375679E+01
(PID.TID 0000.0001) %MON dynstat_uvel_mean            =   8.0622096201320E-01
(PID.TID 0000.0001) %MON dynstat_uvel_sd              =   8.3977513556835E+00
(PID.TID 0000.0001) %MON dynstat_uvel_del2            =   3.9793329811800E-02
(PID.TID 0000.0001) %MON dynstat_vvel_max             =   2.9993138375678E+01
(PID.TID 0000.0001) %MON dynstat_vvel_min             =  -2.9993138375679E+01
(PID.TID 0000.0001) %MON dynstat_vvel_mean            =   8.0622096201320E-01
(PID.TID 0000.0001) %MON dynstat_vvel_sd              =   8.3977513556835E+00
(PID.TID 0000.0001) %MON dynstat_vvel_del2            =   3.9793329811800E-02
(PID.TID 0000.0001) %MON dynstat_wvel_max             =   5.3519548406358E-01
(PID.TID 0000.0001) %MON dynstat_wvel_min             =  -4.2663772512785E-01
(PID.TID 0000.0001) %MON dynstat_wvel_mean            =   6.5131450463577E-17
(PID.TID 0000.0001) %MON dynstat_wvel_sd              =   2.7051324598639E-01
(PID.TID 0000.0001) %MON dynstat_wvel_del2            =   2.7338950422982E-03
(PID.TID 0000.0001) %MON dynstat_theta_max            =   4.2374917566211E+02
(PID.TID 0000.0001) %MON dynstat_theta_min            =   2.5508118466844E+02
(PID.TID 0000.0001) %MON dynstat_theta_mean           =   3.1903085468289E+02
(PID.TID 0000.0001) %MON dynstat_theta_sd             =   4.5424985190985E+01
(PID.TID 0000.0001) %MON dynstat_theta_del2           =   5.0495166623358E-02
(PID.TID 0000.0001) %MON dynstat_salt_max             =   0.0000000000000E+00
(PID.TID 0000.0001) %MON dynstat_salt_min             =   0.0000000000000E+00
(PID.TID 0000.0001) %MON dynstat_salt_mean            =   0.0000000000000E+00
(PID.TID 0000.0001) %MON dynstat_salt_sd              =   0.0000000000000E+00
(PID.TID 0000.0001) %MON dynstat_salt_del2            =   0.0000000000000E+00
(PID.TID 0000.0001) %MON advcfl_uvel_max              =   1.6151348316112E-01
(PID.TID 0000.0001) %MON advcfl_vvel_max              =   1.6151348316111E-01
(PID.TID 0000.0001) %MON advcfl_wvel_max              =   6.3406864966439E-02
(PID.TID 0000.0001) %MON advcfl_W_hf_max              =   3.2111729043815E-02
(PID.TID 0000.0001) %MON pe_b_mean                    =   1.7428054300876E+01
(PID.TID 0000.0001) %MON ke_max                       =   5.0639968274573E+02
(PID.TID 0000.0001) %MON ke_mean                      =   7.1159725955512E+01
(PID.TID 0000.0001) %MON ke_vol                       =   5.0990436378172E+19
(PID.TID 0000.0001) %MON vort_r_min                   =  -7.9469791554223E-06
(PID.TID 0000.0001) %MON vort_r_max                   =   7.9469791554223E-06
(PID.TID 0000.0001) %MON vort_a_mean                  =  -1.2256775868926E-21
(PID.TID 0000.0001) %MON vort_a_sd                    =   8.4889586954468E-05
(PID.TID 0000.0001) %MON vort_p_mean                  =  -1.2256775868926E-21
(PID.TID 0000.0001) %MON vort_p_sd                    =   8.4889586954468E-05
(PID.TID 0000.0001) %MON surfExpan_theta_mean         =  -5.6685618207069E+00
(PID.TID 0000.0001) %MON surfExpan_salt_mean          =   0.0000000000000E+00
(PID.TID 0000.0001) %MON surfExpan_Heat_mean          =  -5.7170620861610E+02
(PID.TID 0000.0001) %MON En_Budget_T2PE_mean          =   1.5775120182743E+02
(PID.TID 0000.0001) // =======================================================
(PID.TID 0000.0001) // End MONITOR dynamic field statistics
(PID.TID 0000.0001) // =======================================================
 cg2d: Sum(rhs),rhsMax =   2.17710294236895E-11  1.05444169024091E+04
(PID.TID 0000.0001)                    cg2d_init_res =    3.51676008766689E+00
(PID.TID 0000.0001)                       cg2d_iters =    16
(PID.TID 0000.0001)                         cg2d_res =    3.43989509778882E-13
(PID.TID 0000.0001) // =======================================================
(PID.TID 0000.0001) // Begin MONITOR dynamic field statistics
(PID.TID 0000.0001) // =======================================================
(PID.TID 0000.0001) %MON time_tsnumber                =                    16
(PID.TID 0000.0001) %MON time_secondsf                =   9.6000000000000E+03
(PID.TID 0000.0001) %MON dynstat_eta_max              =   3.6401548681363E+03
(PID.TID 0000.0001) %MON dynstat_eta_min              =  -2.6113676316257E+03
(PID.TID 0000.0001) %MON dynstat_eta_mean             =  -1.9356024974568E-11
(PID.TID 0000.0001) %MON dynstat_eta_sd               =   2.0605630338166E+03
(PID.TID 0000.0001) %MON dynstat_eta_del2             =   6.8710801205752E+00
(PID.TID 0000.0001) %MON dynstat_uvel_max             =   3.1178210119929E+01
(PID.TID 0000.0001) %MON dynstat_uvel_min             =  -3.1178210119930E+01
(PID.TID 0000.0001) %MON dynstat_uvel_mean            =   8.9142725554761E-01
(PID.TID 0000.0001) %MON dynstat_uvel_sd              =   8.7334866583645E+00
(PID.TID 0000.0001) %MON dynstat_uvel_del2            =   4.1638670178006E-02
(PID.TID 0000.0001) %MON dynstat_vvel_max             =   3.1178210119929E+01
(PID.TID 0000.0001) %MON dynstat_vvel_min             =  -3.1178210119929E+01
(PID.TID 0000.0001) %MON dynstat_vvel_mean            =   8.9142725554761E-01
(PID.TID 0000.0001) %MON dynstat_vvel_sd              =   8.7334866583645E+00
(PID.TID 0000.0001) %MON dynstat_vvel_del2            =   4.1638670178006E-02
(PID.TID 0000.0001) %MON dynstat_wvel_max             =   5.2910732737743E-01
(PID.TID 0000.0001) %MON dynstat_wvel_min             =  -4.3461579909679E-01
(PID.TID 0000.0001) %MON dynstat_wvel_mean            =  -1.5740100528698E-16
(PID.TID 0000.0001) %MON dynstat_wvel_sd              =   2.7576382152825E-01
(PID.TID 0000.0001) %MON dynstat_wvel_del2            =   2.8779626436043E-03
(PID.TID 0000.0001) %MON dynstat_theta_max            =   4.2403942474107E+02
(PID.TID 0000.0001) %MON dynstat_theta_min            =   2.5508195232943E+02
(PID.TID 0000.0001) %MON dynstat_theta_mean           =   3.1906521076920E+02
(PID.TID 0000.0001) %MON dynstat_theta_sd             =   4.5403543514626E+01
(PID.TID 0000.0001) %MON dynstat_theta_del2           =   5.0588422636159E-02
(PID.TID 0000.0001) %MON dynstat_salt_max             =   0.0000000000000E+00
(PID.TID 0000.0001) %MON dynstat_salt_min             =   0.0000000000000E+00
(PID.TID 0000.0001) %MON dynstat_salt_mean            =   0.0000000000000E+00
(PID.TID 0000.0001) %MON dynstat_salt_sd              =   0.0000000000000E+00
(PID.TID 0000.0001) %MON dynstat_salt_del2            =   0.0000000000000E+00
(PID.TID 0000.0001) %MON advcfl_uvel_max              =   1.6789511161267E-01
(PID.TID 0000.0001) %MON advcfl_vvel_max              =   1.6789511161267E-01
(PID.TID 0000.0001) %MON advcfl_wvel_max              =   6.2495688997512E-02
(PID.TID 0000.0001) %MON advcfl_W_hf_max              =   3.1746439642646E-02
(PID.TID 0000.0001) %MON pe_b_mean                    =   2.1229600081658E+01
(PID.TID 0000.0001) %MON ke_max                       =   5.4631718057347E+02
(PID.TID 0000.0001) %MON ke_mean                      =   7.7054947350505E+01
(PID.TID 0000.0001) %MON ke_vol                       =   5.0990436378172E+19
(PID.TID 0000.0001) %MON vort_r_min                   =  -8.8013910556742E-06
(PID.TID 0000.0001) %MON vort_r_max                   =   8.8013910556742E-06
(PID.TID 0000.0001) %MON vort_a_mean                  =   1.5933808629603E-20
(PID.TID 0000.0001) %MON vort_a_sd                    =   8.4967738938240E-05
(PID.TID 0000.0001) %MON vort_p_mean                  =   1.5933808629603E-20
(PID.TID 0000.0001) %MON vort_p_sd                    =   8.4967738938240E-05
(PID.TID 0000.0001) %MON surfExpan_theta_mean         =  -5.7068524758513E+00
(PID.TID 0000.0001) %MON surfExpan_salt_mean          =   0.0000000000000E+00
(PID.TID 0000.0001) %MON surfExpan_Heat_mean          =  -5.7556803564920E+02
(PID.TID 0000.0001) %MON En_Budget_T2PE_mean          =   1.5973877682611E+02
(PID.TID 0000.0001) // =======================================================
(PID.TID 0000.0001) // End MONITOR dynamic field statistics
(PID.TID 0000.0001) // =======================================================
 cg2d: Sum(rhs),rhsMax =   2.31921148952097E-11  1.14246739491247E+04
(PID.TID 0000.0001)                    cg2d_init_res =    3.24093520961179E+00
(PID.TID 0000.0001)                       cg2d_iters =    16
(PID.TID 0000.0001)                         cg2d_res =    3.20679844030848E-13
(PID.TID 0000.0001) // =======================================================
(PID.TID 0000.0001) // Begin MONITOR dynamic field statistics
(PID.TID 0000.0001) // =======================================================
(PID.TID 0000.0001) %MON time_tsnumber                =                    17
(PID.TID 0000.0001) %MON time_secondsf                =   1.0200000000000E+04
(PID.TID 0000.0001) %MON dynstat_eta_max              =   3.9452637017307E+03
(PID.TID 0000.0001) %MON dynstat_eta_min              =  -2.8651804178084E+03
(PID.TID 0000.0001) %MON dynstat_eta_mean             =  -2.2466355680972E-11
(PID.TID 0000.0001) %MON dynstat_eta_sd               =   2.2539057081615E+03
(PID.TID 0000.0001) %MON dynstat_eta_del2             =   7.4176135714157E+00
(PID.TID 0000.0001) %MON dynstat_uvel_max             =   3.2228084162238E+01
(PID.TID 0000.0001) %MON dynstat_uvel_min             =  -3.2228084162238E+01
(PID.TID 0000.0001) %MON dynstat_uvel_mean            =   9.7642348893420E-01
(PID.TID 0000.0001) %MON dynstat_uvel_sd              =   9.0391047472531E+00
(PID.TID 0000.0001) %MON dynstat_uvel_del2            =   4.3436357745065E-02
(PID.TID 0000.0001) %MON dynstat_vvel_max             =   3.2228084162238E+01
(PID.TID 0000.0001) %MON dynstat_vvel_min             =  -3.2228084162238E+01
(PID.TID 0000.0001) %MON dynstat_vvel_mean            =   9.7642348893420E-01
(PID.TID 0000.0001) %MON dynstat_vvel_sd              =   9.0391047472531E+00
(PID.TID 0000.0001) %MON dynstat_vvel_del2            =   4.3436357745065E-02
(PID.TID 0000.0001) %MON dynstat_wvel_max             =   5.2067066201920E-01
(PID.TID 0000.0001) %MON dynstat_wvel_min             =  -4.3889040011187E-01
(PID.TID 0000.0001) %MON dynstat_wvel_mean            =   9.7697175695365E-17
(PID.TID 0000.0001) %MON dynstat_wvel_sd              =   2.7911131169428E-01
(PID.TID 0000.0001) %MON dynstat_wvel_del2            =   2.9945918922405E-03
(PID.TID 0000.0001) %MON dynstat_theta_max            =   4.2435788739312E+02
(PID.TID 0000.0001) %MON dynstat_theta_min            =   2.5508282654857E+02
(PID.TID 0000.0001) %MON dynstat_theta_mean           =   3.1909929744726E+02
(PID.TID 0000.0001) %MON dynstat_theta_sd             =   4.5382225489893E+01
(PID.TID 0000.0001) %MON dynstat_theta_del2           =   5.0675224147758E-02
(PID.TID 0000.0001) %MON dynstat_salt_max             =   0.0000000000000E+00
(PID.TID 0000.0001) %MON dynstat_salt_min             =   0.0000000000000E+00
(PID.TID 0000.0001) %MON dynstat_salt_mean            =   0.0000000000000E+00
(PID.TID 0000.0001) %MON dynstat_salt_sd              =   0.0000000000000E+00
(PID.TID 0000.0001) %MON dynstat_salt_del2            =   0.0000000000000E+00
(PID.TID 0000.0001) %MON advcfl_uvel_max              =   1.7354869848744E-01
(PID.TID 0000.0001) %MON advcfl_vvel_max              =   1.7354869848744E-01
(PID.TID 0000.0001) %MON advcfl_wvel_max              =   6.1828203971104E-02
(PID.TID 0000.0001) %MON advcfl_W_hf_max              =   3.1240239721152E-02
(PID.TID 0000.0001) %MON pe_b_mean                    =   2.5400454706415E+01
(PID.TID 0000.0001) %MON ke_max                       =   5.8373369991999E+02
(PID.TID 0000.0001) %MON ke_mean                      =   8.2644398790786E+01
(PID.TID 0000.0001) %MON ke_vol                       =   5.0990436378172E+19
(PID.TID 0000.0001) %MON vort_r_min                   =  -9.6534728009146E-06
(PID.TID 0000.0001) %MON vort_r_max                   =   9.6534728009146E-06
(PID.TID 0000.0001) %MON vort_a_mean                  =   2.4513551737851E-20
(PID.TID 0000.0001) %MON vort_a_sd                    =   8.5046828185838E-05
(PID.TID 0000.0001) %MON vort_p_mean                  =   2.4513551737851E-20
(PID.TID 0000.0001) %MON vort_p_sd                    =   8.5046828185838E-05
(PID.TID 0000.0001) %MON surfExpan_theta_mean         =  -5.6935682682097E+00
(PID.TID 0000.0001) %MON surfExpan_salt_mean          =   0.0000000000000E+00
(PID.TID 0000.0001) %MON surfExpan_Heat_mean          =  -5.7422824890515E+02
(PID.TID 0000.0001) %MON En_Budget_T2PE_mean          =   1.6052679940509E+02
(PID.TID 0000.0001) // =======================================================
(PID.TID 0000.0001) // End MONITOR dynamic field statistics
(PID.TID 0000.0001) // =======================================================
 cg2d: Sum(rhs),rhsMax =   2.50679477176163E-11  1.22756342510963E+04
(PID.TID 0000.0001)                    cg2d_init_res =    2.98458428569286E+00
(PID.TID 0000.0001)                       cg2d_iters =    16
(PID.TID 0000.0001)                         cg2d_res =    3.06730535805745E-13
(PID.TID 0000.0001) // =======================================================
(PID.TID 0000.0001) // Begin MONITOR dynamic field statistics
(PID.TID 0000.0001) // =======================================================
(PID.TID 0000.0001) %MON time_tsnumber                =                    18
(PID.TID 0000.0001) %MON time_secondsf                =   1.0800000000000E+04
(PID.TID 0000.0001) %MON dynstat_eta_max              =   4.2406760962898E+03
(PID.TID 0000.0001) %MON dynstat_eta_min              =  -3.1173119449982E+03
(PID.TID 0000.0001) %MON dynstat_eta_mean             =  -2.4882645651237E-11
(PID.TID 0000.0001) %MON dynstat_eta_sd               =   2.4452841170033E+03
(PID.TID 0000.0001) %MON dynstat_eta_del2             =   7.9650539083168E+00
(PID.TID 0000.0001) %MON dynstat_uvel_max             =   3.3141706199240E+01
(PID.TID 0000.0001) %MON dynstat_uvel_min             =  -3.3141706199241E+01
(PID.TID 0000.0001) %MON dynstat_uvel_mean            =   1.0604681341702E+00
(PID.TID 0000.0001) %MON dynstat_uvel_sd              =   9.3159640910689E+00
(PID.TID 0000.0001) %MON dynstat_uvel_del2            =   4.5266508580392E-02
(PID.TID 0000.0001) %MON dynstat_vvel_max             =   3.3141706199240E+01
(PID.TID 0000.0001) %MON dynstat_vvel_min             =  -3.3141706199241E+01
(PID.TID 0000.0001) %MON dynstat_vvel_mean            =   1.0604681341702E+00
(PID.TID 0000.0001) %MON dynstat_vvel_sd              =   9.3159640910689E+00
(PID.TID 0000.0001) %MON dynstat_vvel_del2            =   4.5266508580392E-02
(PID.TID 0000.0001) %MON dynstat_wvel_max             =   5.1935148037776E-01
(PID.TID 0000.0001) %MON dynstat_wvel_min             =  -4.4422164174778E-01
(PID.TID 0000.0001) %MON dynstat_wvel_mean            =  -3.5279535667771E-16
(PID.TID 0000.0001) %MON dynstat_wvel_sd              =   2.8057060615739E-01
(PID.TID 0000.0001) %MON dynstat_wvel_del2            =   3.0889553142514E-03
(PID.TID 0000.0001) %MON dynstat_theta_max            =   4.2467015772119E+02
(PID.TID 0000.0001) %MON dynstat_theta_min            =   2.5508380050483E+02
(PID.TID 0000.0001) %MON dynstat_theta_mean           =   3.1913280838194E+02
(PID.TID 0000.0001) %MON dynstat_theta_sd             =   4.5361229055332E+01
(PID.TID 0000.0001) %MON dynstat_theta_del2           =   5.0740774690884E-02
(PID.TID 0000.0001) %MON dynstat_salt_max             =   0.0000000000000E+00
(PID.TID 0000.0001) %MON dynstat_salt_min             =   0.0000000000000E+00
(PID.TID 0000.0001) %MON dynstat_salt_mean            =   0.0000000000000E+00
(PID.TID 0000.0001) %MON dynstat_salt_sd              =   0.0000000000000E+00
(PID.TID 0000.0001) %MON dynstat_salt_del2            =   0.0000000000000E+00
(PID.TID 0000.0001) %MON advcfl_uvel_max              =   1.7846856634657E-01
(PID.TID 0000.0001) %MON advcfl_vvel_max              =   1.7846856634657E-01
(PID.TID 0000.0001) %MON advcfl_wvel_max              =   6.1579272768103E-02
(PID.TID 0000.0001) %MON advcfl_W_hf_max              =   3.1161088822666E-02
(PID.TID 0000.0001) %MON pe_b_mean                    =   2.9897072064344E+01
(PID.TID 0000.0001) %MON ke_max                       =   6.1847700398597E+02
(PID.TID 0000.0001) %MON ke_mean                      =   8.7896487277208E+01
(PID.TID 0000.0001) %MON ke_vol                       =   5.0990436378172E+19
(PID.TID 0000.0001) %MON vort_r_min                   =  -1.0495690181212E-05
(PID.TID 0000.0001) %MON vort_r_max                   =   1.0495690181212E-05
(PID.TID 0000.0001) %MON vort_a_mean                  =  -6.1283879344628E-21
(PID.TID 0000.0001) %MON vort_a_sd                    =   8.5126189321121E-05
(PID.TID 0000.0001) %MON vort_p_mean                  =  -6.1283879344628E-21
(PID.TID 0000.0001) %MON vort_p_sd                    =   8.5126189321121E-05
(PID.TID 0000.0001) %MON surfExpan_theta_mean         =  -5.6290511591169E+00
(PID.TID 0000.0001) %MON surfExpan_salt_mean          =   0.0000000000000E+00
(PID.TID 0000.0001) %MON surfExpan_Heat_mean          =  -5.6772133709984E+02
(PID.TID 0000.0001) %MON En_Budget_T2PE_mean          =   1.6014306885230E+02
(PID.TID 0000.0001) // =======================================================
(PID.TID 0000.0001) // End MONITOR dynamic field statistics
(PID.TID 0000.0001) // =======================================================
 cg2d: Sum(rhs),rhsMax =   2.87627699435689E-11  1.30920814762361E+04
(PID.TID 0000.0001)                    cg2d_init_res =    2.74364341711537E+00
(PID.TID 0000.0001)                       cg2d_iters =    16
(PID.TID 0000.0001)                         cg2d_res =    3.01660737588571E-13
(PID.TID 0000.0001) // =======================================================
(PID.TID 0000.0001) // Begin MONITOR dynamic field statistics
(PID.TID 0000.0001) // =======================================================
(PID.TID 0000.0001) %MON time_tsnumber                =                    19
(PID.TID 0000.0001) %MON time_secondsf                =   1.1400000000000E+04
(PID.TID 0000.0001) %MON dynstat_eta_max              =   4.5245985976285E+03
(PID.TID 0000.0001) %MON dynstat_eta_min              =  -3.3652013032056E+03
(PID.TID 0000.0001) %MON dynstat_eta_mean             =  -2.8892658793378E-11
(PID.TID 0000.0001) %MON dynstat_eta_sd               =   2.6329972347476E+03
(PID.TID 0000.0001) %MON dynstat_eta_del2             =   8.5143758323378E+00
(PID.TID 0000.0001) %MON dynstat_uvel_max             =   3.3917739166013E+01
(PID.TID 0000.0001) %MON dynstat_uvel_min             =  -3.3917739166014E+01
(PID.TID 0000.0001) %MON dynstat_uvel_mean            =   1.1428397141729E+00
(PID.TID 0000.0001) %MON dynstat_uvel_sd              =   9.5657823153998E+00
(PID.TID 0000.0001) %MON dynstat_uvel_del2            =   4.7144074578814E-02
(PID.TID 0000.0001) %MON dynstat_vvel_max             =   3.3917739166013E+01
(PID.TID 0000.0001) %MON dynstat_vvel_min             =  -3.3917739166014E+01
(PID.TID 0000.0001) %MON dynstat_vvel_mean            =   1.1428397141729E+00
(PID.TID 0000.0001) %MON dynstat_vvel_sd              =   9.5657823153998E+00
(PID.TID 0000.0001) %MON dynstat_vvel_del2            =   4.7144074578814E-02
(PID.TID 0000.0001) %MON dynstat_wvel_max             =   5.1254437610627E-01
(PID.TID 0000.0001) %MON dynstat_wvel_min             =  -4.4771002322470E-01
(PID.TID 0000.0001) %MON dynstat_wvel_mean            =  -5.4276208719647E-17
(PID.TID 0000.0001) %MON dynstat_wvel_sd              =   2.8017800112781E-01
(PID.TID 0000.0001) %MON dynstat_wvel_del2            =   3.1712628912895E-03
(PID.TID 0000.0001) %MON dynstat_theta_max            =   4.2497398529223E+02
(PID.TID 0000.0001) %MON dynstat_theta_min            =   2.5508486446542E+02
(PID.TID 0000.0001) %MON dynstat_theta_mean           =   3.1916544372723E+02
(PID.TID 0000.0001) %MON dynstat_theta_sd             =   4.5340750159362E+01
(PID.TID 0000.0001) %MON dynstat_theta_del2           =   5.0810724242943E-02
(PID.TID 0000.0001) %MON dynstat_salt_max             =   0.0000000000000E+00
(PID.TID 0000.0001) %MON dynstat_salt_min             =   0.0000000000000E+00
(PID.TID 0000.0001) %MON dynstat_salt_mean            =   0.0000000000000E+00
(PID.TID 0000.0001) %MON dynstat_salt_sd              =   0.0000000000000E+00
(PID.TID 0000.0001) %MON dynstat_salt_del2            =   0.0000000000000E+00
(PID.TID 0000.0001) %MON advcfl_uvel_max              =   1.8264751507616E-01
(PID.TID 0000.0001) %MON advcfl_vvel_max              =   1.8264751507615E-01
(PID.TID 0000.0001) %MON advcfl_wvel_max              =   6.0630058583610E-02
(PID.TID 0000.0001) %MON advcfl_W_hf_max              =   3.0752662566376E-02
(PID.TID 0000.0001) %MON pe_b_mean                    =   3.4663372190942E+01
(PID.TID 0000.0001) %MON ke_max                       =   6.5043054518987E+02
(PID.TID 0000.0001) %MON ke_mean                      =   9.2794170716532E+01
(PID.TID 0000.0001) %MON ke_vol                       =   5.0990436378172E+19
(PID.TID 0000.0001) %MON vort_r_min                   =  -1.1321210214748E-05
(PID.TID 0000.0001) %MON vort_r_max                   =   1.1321210214748E-05
(PID.TID 0000.0001) %MON vort_a_mean                  =  -4.9027103475702E-21
(PID.TID 0000.0001) %MON vort_a_sd                    =   8.5205144816767E-05
(PID.TID 0000.0001) %MON vort_p_mean                  =  -4.9027103475702E-21
(PID.TID 0000.0001) %MON vort_p_sd                    =   8.5205144816767E-05
(PID.TID 0000.0001) %MON surfExpan_theta_mean         =  -5.5140967687920E+00
(PID.TID 0000.0001) %MON surfExpan_salt_mean          =   0.0000000000000E+00
(PID.TID 0000.0001) %MON surfExpan_Heat_mean          =  -5.5612754298854E+02
(PID.TID 0000.0001) %MON En_Budget_T2PE_mean          =   1.5862501644624E+02
(PID.TID 0000.0001) // =======================================================
(PID.TID 0000.0001) // End MONITOR dynamic field statistics
(PID.TID 0000.0001) // =======================================================
 cg2d: Sum(rhs),rhsMax =   2.83080225926824E-11  1.38704532031026E+04
(PID.TID 0000.0001)                    cg2d_init_res =    2.51483440539079E+00
(PID.TID 0000.0001)                       cg2d_iters =    16
(PID.TID 0000.0001)                         cg2d_res =    2.97001975922140E-13
(PID.TID 0000.0001) // =======================================================
(PID.TID 0000.0001) // Begin MONITOR dynamic field statistics
(PID.TID 0000.0001) // =======================================================
(PID.TID 0000.0001) %MON time_tsnumber                =                    20
(PID.TID 0000.0001) %MON time_secondsf                =   1.2000000000000E+04
(PID.TID 0000.0001) %MON dynstat_eta_max              =   4.7957531585167E+03
(PID.TID 0000.0001) %MON dynstat_eta_min              =  -3.6063189656815E+03
(PID.TID 0000.0001) %MON dynstat_eta_mean             =  -3.2080105137132E-11
(PID.TID 0000.0001) %MON dynstat_eta_sd               =   2.8153821001953E+03
(PID.TID 0000.0001) %MON dynstat_eta_del2             =   9.0593132648737E+00
(PID.TID 0000.0001) %MON dynstat_uvel_max             =   3.4554676778874E+01
(PID.TID 0000.0001) %MON dynstat_uvel_min             =  -3.4554676778875E+01
(PID.TID 0000.0001) %MON dynstat_uvel_mean            =   1.2228421167717E+00
(PID.TID 0000.0001) %MON dynstat_uvel_sd              =   9.7906027131531E+00
(PID.TID 0000.0001) %MON dynstat_uvel_del2            =   4.8925237252936E-02
(PID.TID 0000.0001) %MON dynstat_vvel_max             =   3.4554676778874E+01
(PID.TID 0000.0001) %MON dynstat_vvel_min             =  -3.4554676778875E+01
(PID.TID 0000.0001) %MON dynstat_vvel_mean            =   1.2228421167717E+00
(PID.TID 0000.0001) %MON dynstat_vvel_sd              =   9.7906027131531E+00
(PID.TID 0000.0001) %MON dynstat_vvel_del2            =   4.8925237252936E-02
(PID.TID 0000.0001) %MON dynstat_wvel_max             =   4.9981078803066E-01
(PID.TID 0000.0001) %MON dynstat_wvel_min             =  -4.4830144877886E-01
(PID.TID 0000.0001) %MON dynstat_wvel_mean            =   3.2565725231788E-17
(PID.TID 0000.0001) %MON dynstat_wvel_sd              =   2.7799213689639E-01
(PID.TID 0000.0001) %MON dynstat_wvel_del2            =   3.2174765054807E-03
(PID.TID 0000.0001) %MON dynstat_theta_max            =   4.2526970055722E+02
(PID.TID 0000.0001) %MON dynstat_theta_min            =   2.5508600660465E+02
(PID.TID 0000.0001) %MON dynstat_theta_mean           =   3.1919691278327E+02
(PID.TID 0000.0001) %MON dynstat_theta_sd             =   4.5320980789047E+01
(PID.TID 0000.0001) %MON dynstat_theta_del2           =   5.0921147066735E-02
(PID.TID 0000.0001) %MON dynstat_salt_max             =   0.0000000000000E+00
(PID.TID 0000.0001) %MON dynstat_salt_min             =   0.0000000000000E+00
(PID.TID 0000.0001) %MON dynstat_salt_mean            =   0.0000000000000E+00
(PID.TID 0000.0001) %MON dynstat_salt_sd              =   0.0000000000000E+00
(PID.TID 0000.0001) %MON dynstat_salt_del2            =   0.0000000000000E+00
(PID.TID 0000.0001) %MON advcfl_uvel_max              =   1.8607743331682E-01
(PID.TID 0000.0001) %MON advcfl_vvel_max              =   1.8607743331682E-01
(PID.TID 0000.0001) %MON advcfl_wvel_max              =   5.8933691086881E-02
(PID.TID 0000.0001) %MON advcfl_W_hf_max              =   2.9988647281840E-02
(PID.TID 0000.0001) %MON pe_b_mean                    =   3.9631881850502E+01
(PID.TID 0000.0001) %MON ke_max                       =   6.7951927335660E+02
(PID.TID 0000.0001) %MON ke_mean                      =   9.7334392979190E+01
(PID.TID 0000.0001) %MON ke_vol                       =   5.0990436378172E+19
(PID.TID 0000.0001) %MON vort_r_min                   =  -1.2124008894167E-05
(PID.TID 0000.0001) %MON vort_r_max                   =   1.2124008894167E-05
(PID.TID 0000.0001) %MON vort_a_mean                  =  -3.6770327606777E-21
(PID.TID 0000.0001) %MON vort_a_sd                    =   8.5283010918147E-05
(PID.TID 0000.0001) %MON vort_p_mean                  =  -3.6770327606777E-21
(PID.TID 0000.0001) %MON vort_p_sd                    =   8.5283010918147E-05
(PID.TID 0000.0001) %MON surfExpan_theta_mean         =  -5.3499463702988E+00
(PID.TID 0000.0001) %MON surfExpan_salt_mean          =   0.0000000000000E+00
(PID.TID 0000.0001) %MON surfExpan_Heat_mean          =  -5.3957205591199E+02
(PID.TID 0000.0001) %MON En_Budget_T2PE_mean          =   1.5601878909734E+02
(PID.TID 0000.0001) // =======================================================
(PID.TID 0000.0001) // End MONITOR dynamic field statistics
(PID.TID 0000.0001) // =======================================================
 Computing Diagnostic #     23  ETAN         Counter:      20   Parms: SM      M1      
 Computing Diagnostic #     24  ETANSQ       Counter:      20   Parms: SM P    M1      
 Computing Diagnostic #     25  DETADT2      Counter:      20   Parms: SM      M1      
(PID.TID 0000.0001) %CHECKPOINT        20 ckptA
(PID.TID 0000.0001)   Seconds in section "ALL                    [THE_MODEL_MAIN]":
(PID.TID 0000.0001)           User time:  19.8319844
(PID.TID 0000.0001)         System time:  0.479927011
(PID.TID 0000.0001)     Wall clock time:  21.1395121
(PID.TID 0000.0001)          No. starts: 1
(PID.TID 0000.0001)           No. stops: 1
(PID.TID 0000.0001)   Seconds in section "INITIALISE_FIXED       [THE_MODEL_MAIN]":
(PID.TID 0000.0001)           User time:  3.01354209
(PID.TID 0000.0001)         System time:  0.161975004
(PID.TID 0000.0001)     Wall clock time:  3.94410014
(PID.TID 0000.0001)          No. starts: 1
(PID.TID 0000.0001)           No. stops: 1
(PID.TID 0000.0001)   Seconds in section "THE_MAIN_LOOP          [THE_MODEL_MAIN]":
(PID.TID 0000.0001)           User time:  16.7934465
(PID.TID 0000.0001)         System time:  0.317952007
(PID.TID 0000.0001)     Wall clock time:  17.1707621
(PID.TID 0000.0001)          No. starts: 1
(PID.TID 0000.0001)           No. stops: 1
(PID.TID 0000.0001)   Seconds in section "INITIALISE_VARIA    [THE_MAIN_LOOP]":
(PID.TID 0000.0001)           User time:  1.16382313
(PID.TID 0000.0001)         System time:  0.082987994
(PID.TID 0000.0001)     Wall clock time:  1.26281381
(PID.TID 0000.0001)          No. starts: 1
(PID.TID 0000.0001)           No. stops: 1
(PID.TID 0000.0001)   Seconds in section "MAIN LOOP           [THE_MAIN_LOOP]":
(PID.TID 0000.0001)           User time:  15.6296234
(PID.TID 0000.0001)         System time:  0.234964013
(PID.TID 0000.0001)     Wall clock time:  15.90781
(PID.TID 0000.0001)          No. starts: 1
(PID.TID 0000.0001)           No. stops: 1
(PID.TID 0000.0001)   Seconds in section "FORWARD_STEP        [THE_MAIN_LOOP]":
(PID.TID 0000.0001)           User time:  15.6296234
(PID.TID 0000.0001)         System time:  0.234964013
(PID.TID 0000.0001)     Wall clock time:  15.9069548
(PID.TID 0000.0001)          No. starts: 20
(PID.TID 0000.0001)           No. stops: 20
(PID.TID 0000.0001)   Seconds in section "DO_STATEVARS_DIAGS  [FORWARD_STEP]":
(PID.TID 0000.0001)           User time:  0.481921673
(PID.TID 0000.0001)         System time:  0.00200000405
(PID.TID 0000.0001)     Wall clock time:  0.481712103
(PID.TID 0000.0001)          No. starts: 60
(PID.TID 0000.0001)           No. stops: 60
(PID.TID 0000.0001)   Seconds in section "LOAD_FIELDS_DRIVER  [FORWARD_STEP]":
(PID.TID 0000.0001)           User time:  0.00299930573
(PID.TID 0000.0001)         System time:  0.
(PID.TID 0000.0001)     Wall clock time:  0.00243377686
(PID.TID 0000.0001)          No. starts: 20
(PID.TID 0000.0001)           No. stops: 20
(PID.TID 0000.0001)   Seconds in section "EXTERNAL_FLDS_LOAD [LOAD_FLDS_DRIVER]":
(PID.TID 0000.0001)           User time:  0.000999927521
(PID.TID 0000.0001)         System time:  0.
(PID.TID 0000.0001)     Wall clock time:  0.000818014145
(PID.TID 0000.0001)          No. starts: 20
(PID.TID 0000.0001)           No. stops: 20
(PID.TID 0000.0001)   Seconds in section "DO_ATMOSPHERIC_PHYS [FORWARD_STEP]":
(PID.TID 0000.0001)           User time:  0.
(PID.TID 0000.0001)         System time:  0.
(PID.TID 0000.0001)     Wall clock time:  0.000798940659
(PID.TID 0000.0001)          No. starts: 20
(PID.TID 0000.0001)           No. stops: 20
(PID.TID 0000.0001)   Seconds in section "DO_OCEANIC_PHYS     [FORWARD_STEP]":
(PID.TID 0000.0001)           User time:  0.
(PID.TID 0000.0001)         System time:  0.
(PID.TID 0000.0001)     Wall clock time:  0.000885248184
(PID.TID 0000.0001)          No. starts: 20
(PID.TID 0000.0001)           No. stops: 20
(PID.TID 0000.0001)   Seconds in section "DYNAMICS            [FORWARD_STEP]":
(PID.TID 0000.0001)           User time:  3.05953455
(PID.TID 0000.0001)         System time:  0.
(PID.TID 0000.0001)     Wall clock time:  3.06539726
(PID.TID 0000.0001)          No. starts: 20
(PID.TID 0000.0001)           No. stops: 20
(PID.TID 0000.0001)   Seconds in section "SOLVE_FOR_PRESSURE  [FORWARD_STEP]":
(PID.TID 0000.0001)           User time:  1.47477674
(PID.TID 0000.0001)         System time:  0.00200000405
(PID.TID 0000.0001)     Wall clock time:  1.47719002
(PID.TID 0000.0001)          No. starts: 20
(PID.TID 0000.0001)           No. stops: 20
(PID.TID 0000.0001)   Seconds in section "MOM_CORRECTION_STEP [FORWARD_STEP]":
(PID.TID 0000.0001)           User time:  2.78557634
(PID.TID 0000.0001)         System time:  0.
(PID.TID 0000.0001)     Wall clock time:  2.7883954
(PID.TID 0000.0001)          No. starts: 20
(PID.TID 0000.0001)           No. stops: 20
(PID.TID 0000.0001)   Seconds in section "SHAP_FILT_UV       [MOM_CORR_STEP]":
(PID.TID 0000.0001)           User time:  2.48962116
(PID.TID 0000.0001)         System time:  0.
(PID.TID 0000.0001)     Wall clock time:  2.49428153
(PID.TID 0000.0001)          No. starts: 20
(PID.TID 0000.0001)           No. stops: 20
(PID.TID 0000.0001)   Seconds in section "BLOCKING_EXCHANGES  [FORWARD_STEP]":
(PID.TID 0000.0001)           User time:  0.381941319
(PID.TID 0000.0001)         System time:  0.000999003649
(PID.TID 0000.0001)     Wall clock time:  0.382767677
(PID.TID 0000.0001)          No. starts: 40
(PID.TID 0000.0001)           No. stops: 40
(PID.TID 0000.0001)   Seconds in section "THERMODYNAMICS      [FORWARD_STEP]":
(PID.TID 0000.0001)           User time:  2.27265787
(PID.TID 0000.0001)         System time:  0.00199997425
(PID.TID 0000.0001)     Wall clock time:  2.27912903
(PID.TID 0000.0001)          No. starts: 20
(PID.TID 0000.0001)           No. stops: 20
(PID.TID 0000.0001)   Seconds in section "TRC_CORRECTION_STEP [FORWARD_STEP]":
(PID.TID 0000.0001)           User time:  0.057990551
(PID.TID 0000.0001)         System time:  0.000999987125
(PID.TID 0000.0001)     Wall clock time:  0.060382843
(PID.TID 0000.0001)          No. starts: 20
(PID.TID 0000.0001)           No. stops: 20
(PID.TID 0000.0001)   Seconds in section "SHAP_FILT_TS       [TRC_CORR_STEP]":
(PID.TID 0000.0001)           User time:  0.
(PID.TID 0000.0001)         System time:  0.
(PID.TID 0000.0001)     Wall clock time:  0.000840187073
(PID.TID 0000.0001)          No. starts: 20
(PID.TID 0000.0001)           No. stops: 20
(PID.TID 0000.0001)   Seconds in section "DO_STATEVARS_TAVE   [FORWARD_STEP]":
(PID.TID 0000.0001)           User time:  0.971852779
(PID.TID 0000.0001)         System time:  0.00399899483
(PID.TID 0000.0001)     Wall clock time:  0.978581905
(PID.TID 0000.0001)          No. starts: 20
(PID.TID 0000.0001)           No. stops: 20
(PID.TID 0000.0001)   Seconds in section "MONITOR             [FORWARD_STEP]":
(PID.TID 0000.0001)           User time:  1.91271067
(PID.TID 0000.0001)         System time:  0.
(PID.TID 0000.0001)     Wall clock time:  1.91017628
(PID.TID 0000.0001)          No. starts: 20
(PID.TID 0000.0001)           No. stops: 20
(PID.TID 0000.0001)   Seconds in section "DO_THE_MODEL_IO     [FORWARD_STEP]":
(PID.TID 0000.0001)           User time:  2.11467981
(PID.TID 0000.0001)         System time:  0.0359939933
(PID.TID 0000.0001)     Wall clock time:  2.180861
(PID.TID 0000.0001)          No. starts: 20
(PID.TID 0000.0001)           No. stops: 20
(PID.TID 0000.0001)   Seconds in section "DO_WRITE_PICKUP     [FORWARD_STEP]":
(PID.TID 0000.0001)           User time:  0.0989847183
(PID.TID 0000.0001)         System time:  0.184972018
(PID.TID 0000.0001)     Wall clock time:  0.28337574
(PID.TID 0000.0001)          No. starts: 20
(PID.TID 0000.0001)           No. stops: 20
(PID.TID 0000.0001) // ======================================================
(PID.TID 0000.0001) // Tile <-> Tile communication statistics
(PID.TID 0000.0001) // ======================================================
(PID.TID 0000.0001) // o Tile number: 000001
(PID.TID 0000.0001) //         No. X exchanges =              0
(PID.TID 0000.0001) //            Max. X spins =              0
(PID.TID 0000.0001) //            Min. X spins =     1000000000
(PID.TID 0000.0001) //          Total. X spins =              0
(PID.TID 0000.0001) //            Avg. X spins =       0.00E+00
(PID.TID 0000.0001) //         No. Y exchanges =              0
(PID.TID 0000.0001) //            Max. Y spins =              0
(PID.TID 0000.0001) //            Min. Y spins =     1000000000
(PID.TID 0000.0001) //          Total. Y spins =              0
(PID.TID 0000.0001) //            Avg. Y spins =       0.00E+00
(PID.TID 0000.0001) // o Tile number: 000002
(PID.TID 0000.0001) //         No. X exchanges =              0
(PID.TID 0000.0001) //            Max. X spins =              0
(PID.TID 0000.0001) //            Min. X spins =     1000000000
(PID.TID 0000.0001) //          Total. X spins =              0
(PID.TID 0000.0001) //            Avg. X spins =       0.00E+00
(PID.TID 0000.0001) //         No. Y exchanges =              0
(PID.TID 0000.0001) //            Max. Y spins =              0
(PID.TID 0000.0001) //            Min. Y spins =     1000000000
(PID.TID 0000.0001) //          Total. Y spins =              0
(PID.TID 0000.0001) //            Avg. Y spins =       0.00E+00
(PID.TID 0000.0001) // o Tile number: 000003
(PID.TID 0000.0001) //         No. X exchanges =              0
(PID.TID 0000.0001) //            Max. X spins =              0
(PID.TID 0000.0001) //            Min. X spins =     1000000000
(PID.TID 0000.0001) //          Total. X spins =              0
(PID.TID 0000.0001) //            Avg. X spins =       0.00E+00
(PID.TID 0000.0001) //         No. Y exchanges =              0
(PID.TID 0000.0001) //            Max. Y spins =              0
(PID.TID 0000.0001) //            Min. Y spins =     1000000000
(PID.TID 0000.0001) //          Total. Y spins =              0
(PID.TID 0000.0001) //            Avg. Y spins =       0.00E+00
(PID.TID 0000.0001) // o Tile number: 000004
(PID.TID 0000.0001) //         No. X exchanges =              0
(PID.TID 0000.0001) //            Max. X spins =              0
(PID.TID 0000.0001) //            Min. X spins =     1000000000
(PID.TID 0000.0001) //          Total. X spins =              0
(PID.TID 0000.0001) //            Avg. X spins =       0.00E+00
(PID.TID 0000.0001) //         No. Y exchanges =              0
(PID.TID 0000.0001) //            Max. Y spins =              0
(PID.TID 0000.0001) //            Min. Y spins =     1000000000
(PID.TID 0000.0001) //          Total. Y spins =              0
(PID.TID 0000.0001) //            Avg. Y spins =       0.00E+00
(PID.TID 0000.0001) // o Tile number: 000005
(PID.TID 0000.0001) //         No. X exchanges =              0
(PID.TID 0000.0001) //            Max. X spins =              0
(PID.TID 0000.0001) //            Min. X spins =     1000000000
(PID.TID 0000.0001) //          Total. X spins =              0
(PID.TID 0000.0001) //            Avg. X spins =       0.00E+00
(PID.TID 0000.0001) //         No. Y exchanges =              0
(PID.TID 0000.0001) //            Max. Y spins =              0
(PID.TID 0000.0001) //            Min. Y spins =     1000000000
(PID.TID 0000.0001) //          Total. Y spins =              0
(PID.TID 0000.0001) //            Avg. Y spins =       0.00E+00
(PID.TID 0000.0001) // o Tile number: 000006
(PID.TID 0000.0001) //         No. X exchanges =              0
(PID.TID 0000.0001) //            Max. X spins =              0
(PID.TID 0000.0001) //            Min. X spins =     1000000000
(PID.TID 0000.0001) //          Total. X spins =              0
(PID.TID 0000.0001) //            Avg. X spins =       0.00E+00
(PID.TID 0000.0001) //         No. Y exchanges =              0
(PID.TID 0000.0001) //            Max. Y spins =              0
(PID.TID 0000.0001) //            Min. Y spins =     1000000000
(PID.TID 0000.0001) //          Total. Y spins =              0
(PID.TID 0000.0001) //            Avg. Y spins =       0.00E+00
(PID.TID 0000.0001) // o Tile number: 000007
(PID.TID 0000.0001) //         No. X exchanges =              0
(PID.TID 0000.0001) //            Max. X spins =              0
(PID.TID 0000.0001) //            Min. X spins =     1000000000
(PID.TID 0000.0001) //          Total. X spins =              0
(PID.TID 0000.0001) //            Avg. X spins =       0.00E+00
(PID.TID 0000.0001) //         No. Y exchanges =              0
(PID.TID 0000.0001) //            Max. Y spins =              0
(PID.TID 0000.0001) //            Min. Y spins =     1000000000
(PID.TID 0000.0001) //          Total. Y spins =              0
(PID.TID 0000.0001) //            Avg. Y spins =       0.00E+00
(PID.TID 0000.0001) // o Tile number: 000008
(PID.TID 0000.0001) //         No. X exchanges =              0
(PID.TID 0000.0001) //            Max. X spins =              0
(PID.TID 0000.0001) //            Min. X spins =     1000000000
(PID.TID 0000.0001) //          Total. X spins =              0
(PID.TID 0000.0001) //            Avg. X spins =       0.00E+00
(PID.TID 0000.0001) //         No. Y exchanges =              0
(PID.TID 0000.0001) //            Max. Y spins =              0
(PID.TID 0000.0001) //            Min. Y spins =     1000000000
(PID.TID 0000.0001) //          Total. Y spins =              0
(PID.TID 0000.0001) //            Avg. Y spins =       0.00E+00
(PID.TID 0000.0001) // o Tile number: 000009
(PID.TID 0000.0001) //         No. X exchanges =              0
(PID.TID 0000.0001) //            Max. X spins =              0
(PID.TID 0000.0001) //            Min. X spins =     1000000000
(PID.TID 0000.0001) //          Total. X spins =              0
(PID.TID 0000.0001) //            Avg. X spins =       0.00E+00
(PID.TID 0000.0001) //         No. Y exchanges =              0
(PID.TID 0000.0001) //            Max. Y spins =              0
(PID.TID 0000.0001) //            Min. Y spins =     1000000000
(PID.TID 0000.0001) //          Total. Y spins =              0
(PID.TID 0000.0001) //            Avg. Y spins =       0.00E+00
(PID.TID 0000.0001) // o Tile number: 000010
(PID.TID 0000.0001) //         No. X exchanges =              0
(PID.TID 0000.0001) //            Max. X spins =              0
(PID.TID 0000.0001) //            Min. X spins =     1000000000
(PID.TID 0000.0001) //          Total. X spins =              0
(PID.TID 0000.0001) //            Avg. X spins =       0.00E+00
(PID.TID 0000.0001) //         No. Y exchanges =              0
(PID.TID 0000.0001) //            Max. Y spins =              0
(PID.TID 0000.0001) //            Min. Y spins =     1000000000
(PID.TID 0000.0001) //          Total. Y spins =              0
(PID.TID 0000.0001) //            Avg. Y spins =       0.00E+00
(PID.TID 0000.0001) // o Tile number: 000011
(PID.TID 0000.0001) //         No. X exchanges =              0
(PID.TID 0000.0001) //            Max. X spins =              0
(PID.TID 0000.0001) //            Min. X spins =     1000000000
(PID.TID 0000.0001) //          Total. X spins =              0
(PID.TID 0000.0001) //            Avg. X spins =       0.00E+00
(PID.TID 0000.0001) //         No. Y exchanges =              0
(PID.TID 0000.0001) //            Max. Y spins =              0
(PID.TID 0000.0001) //            Min. Y spins =     1000000000
(PID.TID 0000.0001) //          Total. Y spins =              0
(PID.TID 0000.0001) //            Avg. Y spins =       0.00E+00
(PID.TID 0000.0001) // o Tile number: 000012
(PID.TID 0000.0001) //         No. X exchanges =              0
(PID.TID 0000.0001) //            Max. X spins =              0
(PID.TID 0000.0001) //            Min. X spins =     1000000000
(PID.TID 0000.0001) //          Total. X spins =              0
(PID.TID 0000.0001) //            Avg. X spins =       0.00E+00
(PID.TID 0000.0001) //         No. Y exchanges =              0
(PID.TID 0000.0001) //            Max. Y spins =              0
(PID.TID 0000.0001) //            Min. Y spins =     1000000000
(PID.TID 0000.0001) //          Total. Y spins =              0
(PID.TID 0000.0001) //            Avg. Y spins =       0.00E+00
(PID.TID 0000.0001) // o Thread number: 000001
(PID.TID 0000.0001) //            No. barriers =          16590
(PID.TID 0000.0001) //      Max. barrier spins =              1
(PID.TID 0000.0001) //      Min. barrier spins =              1
(PID.TID 0000.0001) //     Total barrier spins =          16590
(PID.TID 0000.0001) //      Avg. barrier spins =       1.00E+00
