(PID.TID 0000.0001) 
(PID.TID 0000.0001) // ======================================================
(PID.TID 0000.0001) //                      MITgcm UV
(PID.TID 0000.0001) //                      =========
(PID.TID 0000.0001) // ======================================================
(PID.TID 0000.0001) // execution environment starting up...
(PID.TID 0000.0001) 
(PID.TID 0000.0001) // MITgcmUV version:  checkpoint64q
(PID.TID 0000.0001) // Build user:        jmc
(PID.TID 0000.0001) // Build host:        baudelaire
(PID.TID 0000.0001) // Build date:        Sat Dec  7 16:27:28 EST 2013
(PID.TID 0000.0001) 
(PID.TID 0000.0001) // =======================================================
(PID.TID 0000.0001) // Execution Environment parameter file "eedata"
(PID.TID 0000.0001) // =======================================================
(PID.TID 0000.0001) ># Example "eedata" file
(PID.TID 0000.0001) ># Lines beginning "#" are comments
(PID.TID 0000.0001) ># nTx - No. threads per process in X
(PID.TID 0000.0001) ># nTy - No. threads per process in Y
(PID.TID 0000.0001) > &EEPARMS
(PID.TID 0000.0001) > useCubedSphereExchange=.TRUE.,
(PID.TID 0000.0001) > /
(PID.TID 0000.0001) ># Note: Some systems use & as the
(PID.TID 0000.0001) ># namelist terminator. Other systems
(PID.TID 0000.0001) ># use a / character (as shown here).
(PID.TID 0000.0001) 
(PID.TID 0000.0001) // =======================================================
(PID.TID 0000.0001) // Computational Grid Specification ( see files "SIZE.h" )
(PID.TID 0000.0001) //                                  ( and "eedata"       )
(PID.TID 0000.0001) // =======================================================
(PID.TID 0000.0001)      nPx =    1 ; /* No. processes in X */
(PID.TID 0000.0001)      nPy =    1 ; /* No. processes in Y */
(PID.TID 0000.0001)      nSx =    6 ; /* No. tiles in X per process */
(PID.TID 0000.0001)      nSy =    1 ; /* No. tiles in Y per process */
(PID.TID 0000.0001)      sNx =   32 ; /* Tile size in X */
(PID.TID 0000.0001)      sNy =   32 ; /* Tile size in Y */
(PID.TID 0000.0001)      OLx =    2 ; /* Tile overlap distance in X */
(PID.TID 0000.0001)      OLy =    2 ; /* Tile overlap distance in Y */
(PID.TID 0000.0001)      nTx =    1 ; /* No. threads in X per process */
(PID.TID 0000.0001)      nTy =    1 ; /* No. threads in Y per process */
(PID.TID 0000.0001)       Nr =    1 ; /* No. levels in the vertical   */
(PID.TID 0000.0001)       Nx =  192 ; /* Total domain size in X ( = nPx*nSx*sNx ) */
(PID.TID 0000.0001)       Ny =   32 ; /* Total domain size in Y ( = nPy*nSy*sNy ) */
(PID.TID 0000.0001)   nTiles =    6 ; /* Total no. tiles per process ( = nSx*nSy ) */
(PID.TID 0000.0001)   nProcs =    1 ; /* Total no. processes ( = nPx*nPy ) */
(PID.TID 0000.0001) nThreads =    1 ; /* Total no. threads per process ( = nTx*nTy ) */
(PID.TID 0000.0001) usingMPI =    F ; /* Flag used to control whether MPI is in use */
(PID.TID 0000.0001)                   /*  note: To execute a program with MPI calls */
(PID.TID 0000.0001)                   /*  it must be launched appropriately e.g     */
(PID.TID 0000.0001)                   /*  "mpirun -np 64 ......"                    */
(PID.TID 0000.0001) useCoupler=    F ;/* Flag used to control communications with   */
(PID.TID 0000.0001)                   /*  other model components, through a coupler */
(PID.TID 0000.0001) debugMode =    F ; /* print debug msg. (sequence of S/R calls)  */
(PID.TID 0000.0001) printMapIncludesZeros=    F ; /* print zeros in Std.Output maps */
(PID.TID 0000.0001) maxLengthPrt1D=   65 /* maxLength of 1D array printed to StdOut */
(PID.TID 0000.0001) 
(PID.TID 0000.0001) // ======================================================
(PID.TID 0000.0001) // Mapping of tiles to threads
(PID.TID 0000.0001) // ======================================================
(PID.TID 0000.0001) // -o- Thread   1, tiles (   1:   6,   1:   1)
(PID.TID 0000.0001) 
(PID.TID 0000.0001) W2_READPARMS: file data.exch2 not found
(PID.TID 0000.0001) => use W2_EXCH2 default: regular 6-facets Cube
(PID.TID 0000.0001) W2_useE2ioLayOut=    T ;/* T: use Exch2 glob IO map; F: use model default */
(PID.TID 0000.0001) W2_mapIO        =  -1 ; /* select option for Exch2 global-IO map */
(PID.TID 0000.0001) W2_printMsg     =  -1 ; /* select option for printing information */
(PID.TID 0000.0001) ===== Start setting W2 TOPOLOGY:
(PID.TID 0000.0001)  write to log-file: w2_tile_topology.0000.log
(PID.TID 0000.0001) =====       setting W2 TOPOLOGY: Done
(PID.TID 0000.0001) 
(PID.TID 0000.0001)  INI_PARMS: opening model parameter file "data"
(PID.TID 0000.0001)  OPEN_COPY_DATA_FILE: opening file data
(PID.TID 0000.0001) // =======================================================
(PID.TID 0000.0001) // Parameter file "data"
(PID.TID 0000.0001) // =======================================================
(PID.TID 0000.0001) ># ====================
(PID.TID 0000.0001) ># | Model parameters |
(PID.TID 0000.0001) ># ====================
(PID.TID 0000.0001) >#
(PID.TID 0000.0001) ># Continuous equation parameters
(PID.TID 0000.0001) > &PARM01
(PID.TID 0000.0001) > tRef=300.,
(PID.TID 0000.0001) > sRef=0.,
(PID.TID 0000.0001) > viscAr=0.,
(PID.TID 0000.0001) > viscAh=0.,
(PID.TID 0000.0001) > viscA4=0.,
(PID.TID 0000.0001) > no_slip_sides=.FALSE.,
(PID.TID 0000.0001) > no_slip_bottom=.FALSE.,
(PID.TID 0000.0001) > diffKrS=0.,
(PID.TID 0000.0001) > diffKhS=0.,
(PID.TID 0000.0001) > diffK4S=0.,
(PID.TID 0000.0001) > buoyancyRelation='ATMOSPHERIC',
(PID.TID 0000.0001) > eosType='IDEALG',
(PID.TID 0000.0001) > rotationPeriod=86400.,
(PID.TID 0000.0001) > gravity=9.81,
(PID.TID 0000.0001) > rhonil=1.0,
(PID.TID 0000.0001) > rhoConst=1.0,
(PID.TID 0000.0001) > rigidLid=.FALSE.,
(PID.TID 0000.0001) > implicitFreeSurface=.TRUE.,
(PID.TID 0000.0001) > nonHydrostatic=.FALSE.,
(PID.TID 0000.0001) > readBinaryPrec=64,
(PID.TID 0000.0001) > writeBinaryPrec=64,
(PID.TID 0000.0001) > tempStepping=.FALSE.,
(PID.TID 0000.0001) > saltStepping=.TRUE.,
(PID.TID 0000.0001) > vectorInvariantMomentum=.TRUE.,
(PID.TID 0000.0001) > /
(PID.TID 0000.0001) >
(PID.TID 0000.0001) ># Elliptic solver parameters
(PID.TID 0000.0001) > &PARM02
(PID.TID 0000.0001) > cg2dMaxIters=600,
(PID.TID 0000.0001) > cg2dTargetResidual=1.E-12,
(PID.TID 0000.0001) > /
(PID.TID 0000.0001) >
(PID.TID 0000.0001) ># Time stepping parameters
(PID.TID 0000.0001) > &PARM03
(PID.TID 0000.0001) > niter0=0,
(PID.TID 0000.0001) >#nTimeSteps=1728,
(PID.TID 0000.0001) > nTimeSteps=20,
(PID.TID 0000.0001) > abEps=0.1,
(PID.TID 0000.0001) > deltaT=1200.0,
(PID.TID 0000.0001) > cAdjFreq=0.,
(PID.TID 0000.0001) > pChkptFreq=0.0,
(PID.TID 0000.0001) > chkptFreq=0.0,
(PID.TID 0000.0001) > dumpFreq=86400.0,
(PID.TID 0000.0001) >#diagFreq=1.0,
(PID.TID 0000.0001) >#monitorFreq=21600.,
(PID.TID 0000.0001) > monitorFreq=1.,
(PID.TID 0000.0001) > /
(PID.TID 0000.0001) >
(PID.TID 0000.0001) ># Gridding parameters
(PID.TID 0000.0001) > &PARM04
(PID.TID 0000.0001) > usingCurvilinearGrid=.TRUE.,
(PID.TID 0000.0001) > radius_fromHorizGrid=6370.E3,
(PID.TID 0000.0001) > delR=1.E5,
(PID.TID 0000.0001) > Ro_SeaLevel=1.E5,
(PID.TID 0000.0001) > /
(PID.TID 0000.0001) >
(PID.TID 0000.0001) ># Input datasets
(PID.TID 0000.0001) > &PARM05
(PID.TID 0000.0001) >#uVelInitFile='U.init',
(PID.TID 0000.0001) >#vVelInitFile='V.init',
(PID.TID 0000.0001) >#pSurfInitFile='Eta.init',
(PID.TID 0000.0001) > hydrogSaltFile='S.init',
(PID.TID 0000.0001) > /
(PID.TID 0000.0001) 
(PID.TID 0000.0001)  INI_PARMS ; starts to read PARM01
(PID.TID 0000.0001)  INI_PARMS ; read PARM01 : OK
(PID.TID 0000.0001)  INI_PARMS ; starts to read PARM02
(PID.TID 0000.0001)  INI_PARMS ; read PARM02 : OK
(PID.TID 0000.0001)  INI_PARMS ; starts to read PARM03
(PID.TID 0000.0001)  INI_PARMS ; read PARM03 : OK
(PID.TID 0000.0001)  INI_PARMS ; starts to read PARM04
(PID.TID 0000.0001)  INI_PARMS ; read PARM04 : OK
(PID.TID 0000.0001)  INI_PARMS ; starts to read PARM05
(PID.TID 0000.0001)  INI_PARMS ; read PARM05 : OK
(PID.TID 0000.0001)  INI_PARMS: finished reading file "data"
(PID.TID 0000.0001)  PACKAGES_BOOT: opening data.pkg
(PID.TID 0000.0001)  OPEN_COPY_DATA_FILE: opening file data.pkg
(PID.TID 0000.0001) // =======================================================
(PID.TID 0000.0001) // Parameter file "data.pkg"
(PID.TID 0000.0001) // =======================================================
(PID.TID 0000.0001) ># Packages
(PID.TID 0000.0001) > &PACKAGES
(PID.TID 0000.0001) > useDiagnostics=.TRUE.,
(PID.TID 0000.0001) > /
(PID.TID 0000.0001) 
(PID.TID 0000.0001)  PACKAGES_BOOT: finished reading data.pkg
(PID.TID 0000.0001)  DIAGNOSTICS_READPARMS: opening data.diagnostics
(PID.TID 0000.0001)  OPEN_COPY_DATA_FILE: opening file data.diagnostics
(PID.TID 0000.0001) // =======================================================
(PID.TID 0000.0001) // Parameter file "data.diagnostics"
(PID.TID 0000.0001) // =======================================================
(PID.TID 0000.0001) ># Diagnostic Package Choices
(PID.TID 0000.0001) >#--------------------
(PID.TID 0000.0001) >#  dumpAtLast (logical): always write output at the end of simulation (default=F)
(PID.TID 0000.0001) >#  diag_mnc   (logical): write to NetCDF files (default=useMNC)
(PID.TID 0000.0001) >#--for each output-stream:
(PID.TID 0000.0001) >#  fileName(n) : prefix of the output file name (max 80c long) for outp.stream n
(PID.TID 0000.0001) >#  frequency(n):< 0 : write snap-shot output every |frequency| seconds
(PID.TID 0000.0001) >#               > 0 : write time-average output every frequency seconds
(PID.TID 0000.0001) >#  timePhase(n)     : write at time = timePhase + multiple of |frequency|
(PID.TID 0000.0001) >#    averagingFreq  : frequency (in s) for periodic averaging interval
(PID.TID 0000.0001) >#    averagingPhase : phase     (in s) for periodic averaging interval
(PID.TID 0000.0001) >#    repeatCycle    : number of averaging intervals in 1 cycle
(PID.TID 0000.0001) >#  levels(:,n) : list of levels to write to file (Notes: declared as REAL)
(PID.TID 0000.0001) >#                when this entry is missing, select all common levels of this list
(PID.TID 0000.0001) >#  fields(:,n) : list of selected diagnostics fields (8.c) in outp.stream n
(PID.TID 0000.0001) >#                (see "available_diagnostics.log" file for the full list of diags)
(PID.TID 0000.0001) >#  missing_value(n) : missing value for real-type fields in output file "n"
(PID.TID 0000.0001) >#  fileFlags(n)     : specific code (8c string) for output file "n"
(PID.TID 0000.0001) >#--------------------
(PID.TID 0000.0001) > &DIAGNOSTICS_LIST
(PID.TID 0000.0001) ># diag_mnc     = .FALSE.,
(PID.TID 0000.0001) >#--
(PID.TID 0000.0001) >  fields(1:2,1)  = 'SALT    ','SALTSQ  ',
(PID.TID 0000.0001) >   fileName(1) = 's_Diag',
(PID.TID 0000.0001) >  frequency(1) = 21600.,
(PID.TID 0000.0001) > /
(PID.TID 0000.0001) >
(PID.TID 0000.0001) >#--------------------
(PID.TID 0000.0001) ># Parameter for Diagnostics of per level statistics:
(PID.TID 0000.0001) >#--------------------
(PID.TID 0000.0001) >#  diagSt_mnc (logical): write stat-diags to NetCDF files (default=diag_mnc)
(PID.TID 0000.0001) >#  diagSt_regMaskFile : file containing the region-mask to read-in
(PID.TID 0000.0001) >#  nSetRegMskFile   : number of region-mask sets within the region-mask file
(PID.TID 0000.0001) >#  set_regMask(i)   : region-mask set-index that identifies the region "i"
(PID.TID 0000.0001) >#  val_regMask(i)   : region "i" identifier value in the region mask
(PID.TID 0000.0001) >#--for each output-stream:
(PID.TID 0000.0001) >#  stat_fName(n) : prefix of the output file name (max 80c long) for outp.stream n
(PID.TID 0000.0001) >#  stat_freq(n):< 0 : write snap-shot output every |stat_freq| seconds
(PID.TID 0000.0001) >#               > 0 : write time-average output every stat_freq seconds
(PID.TID 0000.0001) >#  stat_phase(n)    : write at time = stat_phase + multiple of |stat_freq|
(PID.TID 0000.0001) >#  stat_region(:,n) : list of "regions" (default: 1 region only=global)
(PID.TID 0000.0001) >#  stat_fields(:,n) : list of selected diagnostics fields (8.c) in outp.stream n
(PID.TID 0000.0001) >#                (see "available_diagnostics.log" file for the full list of diags)
(PID.TID 0000.0001) >#--------------------
(PID.TID 0000.0001) > &DIAG_STATIS_PARMS
(PID.TID 0000.0001) > stat_fields(1:4,1)  = 'ETAN    ','momKE   ',
(PID.TID 0000.0001) >#                      'DETADT2 ',
(PID.TID 0000.0001) >                       'SALT    ','SALTSQ  ',
(PID.TID 0000.0001) >  stat_fName(1) = 'dynStDiag',
(PID.TID 0000.0001) >   stat_freq(1) = -21600.,
(PID.TID 0000.0001) >  stat_phase(1) = 0.,
(PID.TID 0000.0001) > /
(PID.TID 0000.0001) >
(PID.TID 0000.0001) 
(PID.TID 0000.0001) S/R DIAGNOSTICS_READPARMS, read namelist "diagnostics_list": start
(PID.TID 0000.0001) S/R DIAGNOSTICS_READPARMS, read namelist "diagnostics_list": OK
(PID.TID 0000.0001) S/R DIAGNOSTICS_READPARMS, read namelist "DIAG_STATIS_PARMS": start
(PID.TID 0000.0001) S/R DIAGNOSTICS_READPARMS, read namelist "DIAG_STATIS_PARMS": OK
(PID.TID 0000.0001)  DIAGNOSTICS_READPARMS: global parameter summary:
(PID.TID 0000.0001)  dumpAtLast = /* always write time-ave diags at the end */
(PID.TID 0000.0001)                   F
(PID.TID 0000.0001)     ;
(PID.TID 0000.0001)  diag_mnc =   /* write NetCDF output files */
(PID.TID 0000.0001)                   F
(PID.TID 0000.0001)     ;
(PID.TID 0000.0001)  useMissingValue = /* put MissingValue where mask = 0 */
(PID.TID 0000.0001)                   F
(PID.TID 0000.0001)     ;
(PID.TID 0000.0001)  diagCG_maxIters = /* max number of iters in diag_cg2d */
(PID.TID 0000.0001)                     600
(PID.TID 0000.0001)     ;
(PID.TID 0000.0001)  diagCG_resTarget = /* residual target for diag_cg2d */
(PID.TID 0000.0001)                 1.000000000000000E-12
(PID.TID 0000.0001)     ;
(PID.TID 0000.0001) -----------------------------------------------------
(PID.TID 0000.0001)  DIAGNOSTICS_READPARMS: active diagnostics summary:
(PID.TID 0000.0001) -----------------------------------------------------
(PID.TID 0000.0001) Creating Output Stream: s_Diag
(PID.TID 0000.0001) Output Frequency:      21600.000000 ; Phase:           0.000000
(PID.TID 0000.0001)  Averaging Freq.:      21600.000000 , Phase:           0.000000 , Cycle:   1
(PID.TID 0000.0001)  missing value: -9.990000000000E+02
(PID.TID 0000.0001)  Levels:    will be set later
(PID.TID 0000.0001)  Fields:    SALT     SALTSQ
(PID.TID 0000.0001) -----------------------------------------------------
(PID.TID 0000.0001)  DIAGNOSTICS_READPARMS: statistics diags. summary:
(PID.TID 0000.0001) Creating Stats. Output Stream: dynStDiag
(PID.TID 0000.0001) Output Frequency:     -21600.000000 ; Phase:           0.000000
(PID.TID 0000.0001)  Regions:   0
(PID.TID 0000.0001)  Fields:    ETAN     momKE    SALT     SALTSQ
(PID.TID 0000.0001) -----------------------------------------------------
(PID.TID 0000.0001) 
(PID.TID 0000.0001) SET_PARMS: done
(PID.TID 0000.0001) Enter INI_VERTICAL_GRID: setInterFDr=    T ; setCenterDr=    F
(PID.TID 0000.0001) tile:   1 ; Read from file tile001.mitgrid
(PID.TID 0000.0001)   => xC yC dxF dyF rA xG yG dxV dyU rAz dxC dyC rAw rAs dxG dyG
(PID.TID 0000.0001) tile:   2 ; Read from file tile002.mitgrid
(PID.TID 0000.0001)   => xC yC dxF dyF rA xG yG dxV dyU rAz dxC dyC rAw rAs dxG dyG
(PID.TID 0000.0001) tile:   3 ; Read from file tile003.mitgrid
(PID.TID 0000.0001)   => xC yC dxF dyF rA xG yG dxV dyU rAz dxC dyC rAw rAs dxG dyG
(PID.TID 0000.0001) tile:   4 ; Read from file tile004.mitgrid
(PID.TID 0000.0001)   => xC yC dxF dyF rA xG yG dxV dyU rAz dxC dyC rAw rAs dxG dyG
(PID.TID 0000.0001) tile:   5 ; Read from file tile005.mitgrid
(PID.TID 0000.0001)   => xC yC dxF dyF rA xG yG dxV dyU rAz dxC dyC rAw rAs dxG dyG
(PID.TID 0000.0001) tile:   6 ; Read from file tile006.mitgrid
(PID.TID 0000.0001)   => xC yC dxF dyF rA xG yG dxV dyU rAz dxC dyC rAw rAs dxG dyG
(PID.TID 0000.0001) %MON XC_max                       =   1.7854351589505E+02
(PID.TID 0000.0001) %MON XC_min                       =  -1.7854351589505E+02
(PID.TID 0000.0001) %MON XC_mean                      =   9.4461475678524E-15
(PID.TID 0000.0001) %MON XC_sd                        =   1.0355545336287E+02
(PID.TID 0000.0001) %MON XG_max                       =   1.8000000000000E+02
(PID.TID 0000.0001) %MON XG_min                       =  -1.7708797161002E+02
(PID.TID 0000.0001) %MON XG_mean                      =   1.8457031250000E+00
(PID.TID 0000.0001) %MON XG_sd                        =   1.0356201791685E+02
(PID.TID 0000.0001) %MON DXC_max                      =   3.2375186364168E+05
(PID.TID 0000.0001) %MON DXC_min                      =   1.1166471326979E+05
(PID.TID 0000.0001) %MON DXC_mean                     =   2.8606279210230E+05
(PID.TID 0000.0001) %MON DXC_sd                       =   3.4029260293545E+04
(PID.TID 0000.0001) %MON DXF_max                      =   3.2369948031419E+05
(PID.TID 0000.0001) %MON DXF_min                      =   1.2081644974275E+05
(PID.TID 0000.0001) %MON DXF_mean                     =   2.8606279210229E+05
(PID.TID 0000.0001) %MON DXF_sd                       =   3.4027324876559E+04
(PID.TID 0000.0001) %MON DXG_max                      =   3.2375195872773E+05
(PID.TID 0000.0001) %MON DXG_min                      =   1.0098378008764E+05
(PID.TID 0000.0001) %MON DXG_mean                     =   2.8604515874455E+05
(PID.TID 0000.0001) %MON DXG_sd                       =   3.4124649525440E+04
(PID.TID 0000.0001) %MON DXV_max                      =   3.2380418162744E+05
(PID.TID 0000.0001) %MON DXV_min                      =   8.0152299824045E+04
(PID.TID 0000.0001) %MON DXV_mean                     =   2.8604515874455E+05
(PID.TID 0000.0001) %MON DXV_sd                       =   3.4134690398933E+04
(PID.TID 0000.0001) %MON YC_max                       =   8.7940663871962E+01
(PID.TID 0000.0001) %MON YC_min                       =  -8.7940663871962E+01
(PID.TID 0000.0001) %MON YC_mean                      =   0.0000000000000E+00
(PID.TID 0000.0001) %MON YC_sd                        =   3.8676242969072E+01
(PID.TID 0000.0001) %MON YG_max                       =   9.0000000000000E+01
(PID.TID 0000.0001) %MON YG_min                       =  -9.0000000000000E+01
(PID.TID 0000.0001) %MON YG_mean                      =   1.1842378929335E-15
(PID.TID 0000.0001) %MON YG_sd                        =   3.8676895860710E+01
(PID.TID 0000.0001) %MON DYC_max                      =   3.2375186364168E+05
(PID.TID 0000.0001) %MON DYC_min                      =   1.1166471326979E+05
(PID.TID 0000.0001) %MON DYC_mean                     =   2.8606279210230E+05
(PID.TID 0000.0001) %MON DYC_sd                       =   3.4029260293545E+04
(PID.TID 0000.0001) %MON DYF_max                      =   3.2369948031419E+05
(PID.TID 0000.0001) %MON DYF_min                      =   1.2081644974275E+05
(PID.TID 0000.0001) %MON DYF_mean                     =   2.8606279210230E+05
(PID.TID 0000.0001) %MON DYF_sd                       =   3.4027324876559E+04
(PID.TID 0000.0001) %MON DYG_max                      =   3.2375195872773E+05
(PID.TID 0000.0001) %MON DYG_min                      =   1.0098378008764E+05
(PID.TID 0000.0001) %MON DYG_mean                     =   2.8604515874455E+05
(PID.TID 0000.0001) %MON DYG_sd                       =   3.4124649525440E+04
(PID.TID 0000.0001) %MON DYU_max                      =   3.2380418162744E+05
(PID.TID 0000.0001) %MON DYU_min                      =   8.0152299824045E+04
(PID.TID 0000.0001) %MON DYU_mean                     =   2.8604515874455E+05
(PID.TID 0000.0001) %MON DYU_sd                       =   3.4134690398933E+04
(PID.TID 0000.0001) %MON RA_max                       =   1.0477149086258E+11
(PID.TID 0000.0001) %MON RA_min                       =   1.4831937093978E+10
(PID.TID 0000.0001) %MON RA_mean                      =   8.2992246709111E+10
(PID.TID 0000.0001) %MON RA_sd                        =   1.7474749259308E+10
(PID.TID 0000.0001) %MON RAW_max                      =   1.0480542568956E+11
(PID.TID 0000.0001) %MON RAW_min                      =   1.2415180612768E+10
(PID.TID 0000.0001) %MON RAW_mean                     =   8.2992246709111E+10
(PID.TID 0000.0001) %MON RAW_sd                       =   1.7475025623262E+10
(PID.TID 0000.0001) %MON RAS_max                      =   1.0480542568956E+11
(PID.TID 0000.0001) %MON RAS_min                      =   1.2415180612768E+10
(PID.TID 0000.0001) %MON RAS_mean                     =   8.2992246709111E+10
(PID.TID 0000.0001) %MON RAS_sd                       =   1.7475025623262E+10
(PID.TID 0000.0001) %MON RAZ_max                      =   1.0483926219563E+11
(PID.TID 0000.0001) %MON RAZ_min                      =   9.2429460237150E+09
(PID.TID 0000.0001) %MON RAZ_mean                     =   8.2992246709111E+10
(PID.TID 0000.0001) %MON RAZ_sd                       =   1.7475350638329E+10
(PID.TID 0000.0001) %MON AngleCS_max                  =   9.9999994756720E-01
(PID.TID 0000.0001) %MON AngleCS_min                  =  -9.9968286870536E-01
(PID.TID 0000.0001) %MON AngleCS_mean                 =   3.3078845306109E-01
(PID.TID 0000.0001) %MON AngleCS_sd                   =   6.2496319837367E-01
(PID.TID 0000.0001) %MON AngleSN_max                  =   9.9968286870536E-01
(PID.TID 0000.0001) %MON AngleSN_min                  =  -9.9999994756720E-01
(PID.TID 0000.0001) %MON AngleSN_mean                 =  -3.3078845306109E-01
(PID.TID 0000.0001) %MON AngleSN_sd                   =   6.2496319837367E-01
(PID.TID 0000.0001) 
(PID.TID 0000.0001) SET_REF_STATE: PhiRef/g [m] at level Center (integer)
(PID.TID 0000.0001)                      and at level Interface (half-int.) :
(PID.TID 0000.0001)  K=  0.5  ;  r=       100000.0  ;  phiRef/g=        0.000
(PID.TID 0000.0001)  K=  1.0  ;  r=        50000.0  ;  phiRef/g=     5516.309
(PID.TID 0000.0001)  K=  1.5  ;  r=            0.0  ;  phiRef/g=    30703.364
(PID.TID 0000.0001) // =======================================================
(PID.TID 0000.0001) // Field Model R_low (ini_masks_etc)
(PID.TID 0000.0001) // CMIN =          1.000000000000000E+32
(PID.TID 0000.0001) // CMAX =         -1.000000000000000E+32
(PID.TID 0000.0001) // CINT =          0.000000000000000E+00
(PID.TID 0000.0001) // SYMBOLS (CMIN->CMAX): -abcdefghijklmnopqrstuvwxyz+
(PID.TID 0000.0001) //                  0.0: .
(PID.TID 0000.0001) // RANGE I (Lo:Hi:Step):(    -1:   194:     1)
(PID.TID 0000.0001) // RANGE J (Lo:Hi:Step):(    34:    -1:    -1)
(PID.TID 0000.0001) // RANGE K (Lo:Hi:Step):(   1:   1:   1)
(PID.TID 0000.0001) // =======================================================
(PID.TID 0000.0001) // =======================================================
(PID.TID 0000.0001) // END OF FIELD                                          =
(PID.TID 0000.0001) // =======================================================
(PID.TID 0000.0001) 
(PID.TID 0000.0001) // =======================================================
(PID.TID 0000.0001) // Field Model Ro_surf (ini_masks_etc)
(PID.TID 0000.0001) // CMIN =          1.000000000000000E+05
(PID.TID 0000.0001) // CMAX =          1.000000000000000E+05
(PID.TID 0000.0001) // CINT =          0.000000000000000E+00
(PID.TID 0000.0001) // SYMBOLS (CMIN->CMAX): -abcdefghijklmnopqrstuvwxyz+
(PID.TID 0000.0001) //                  0.0: .
(PID.TID 0000.0001) // RANGE I (Lo:Hi:Step):(    -1:   194:     1)
(PID.TID 0000.0001) // RANGE J (Lo:Hi:Step):(    34:    -1:    -1)
(PID.TID 0000.0001) // RANGE K (Lo:Hi:Step):(   1:   1:   1)
(PID.TID 0000.0001) // =======================================================
(PID.TID 0000.0001) // =======================================================
(PID.TID 0000.0001) // END OF FIELD                                          =
(PID.TID 0000.0001) // =======================================================
(PID.TID 0000.0001) 
(PID.TID 0000.0001) // =======================================================
(PID.TID 0000.0001) // Field hFacC at iteration          0
(PID.TID 0000.0001) // CMIN =          1.000000000000000E+00
(PID.TID 0000.0001) // CMAX =          1.000000000000000E+00
(PID.TID 0000.0001) // CINT =          0.000000000000000E+00
(PID.TID 0000.0001) // SYMBOLS (CMIN->CMAX): -abcdefghijklmnopqrstuvwxyz+
(PID.TID 0000.0001) //                  0.0: .
(PID.TID 0000.0001) // RANGE I (Lo:Hi:Step):(    -1:   194:     1)
(PID.TID 0000.0001) // RANGE J (Lo:Hi:Step):(    34:    -1:    -1)
(PID.TID 0000.0001) // RANGE K (Lo:Hi:Step):(   1:   1:   1)
(PID.TID 0000.0001) // =======================================================
(PID.TID 0000.0001) // =======================================================
(PID.TID 0000.0001) // END OF FIELD                                          =
(PID.TID 0000.0001) // =======================================================
(PID.TID 0000.0001) 
(PID.TID 0000.0001) // =======================================================
(PID.TID 0000.0001) // Field hFacW at iteration          0
(PID.TID 0000.0001) // CMIN =          1.000000000000000E+00
(PID.TID 0000.0001) // CMAX =          1.000000000000000E+00
(PID.TID 0000.0001) // CINT =          0.000000000000000E+00
(PID.TID 0000.0001) // SYMBOLS (CMIN->CMAX): -abcdefghijklmnopqrstuvwxyz+
(PID.TID 0000.0001) //                  0.0: .
(PID.TID 0000.0001) // RANGE I (Lo:Hi:Step):(    -1:   194:     1)
(PID.TID 0000.0001) // RANGE J (Lo:Hi:Step):(    34:    -1:    -1)
(PID.TID 0000.0001) // RANGE K (Lo:Hi:Step):(   1:   1:   1)
(PID.TID 0000.0001) // =======================================================
(PID.TID 0000.0001) // =======================================================
(PID.TID 0000.0001) // END OF FIELD                                          =
(PID.TID 0000.0001) // =======================================================
(PID.TID 0000.0001) 
(PID.TID 0000.0001) // =======================================================
(PID.TID 0000.0001) // Field hFacS at iteration          0
(PID.TID 0000.0001) // CMIN =          1.000000000000000E+00
(PID.TID 0000.0001) // CMAX =          1.000000000000000E+00
(PID.TID 0000.0001) // CINT =          0.000000000000000E+00
(PID.TID 0000.0001) // SYMBOLS (CMIN->CMAX): -abcdefghijklmnopqrstuvwxyz+
(PID.TID 0000.0001) //                  0.0: .
(PID.TID 0000.0001) // RANGE I (Lo:Hi:Step):(    -1:   194:     1)
(PID.TID 0000.0001) // RANGE J (Lo:Hi:Step):(    34:    -1:    -1)
(PID.TID 0000.0001) // RANGE K (Lo:Hi:Step):(   1:   1:   1)
(PID.TID 0000.0001) // =======================================================
(PID.TID 0000.0001) // =======================================================
(PID.TID 0000.0001) // END OF FIELD                                          =
(PID.TID 0000.0001) // =======================================================
(PID.TID 0000.0001) 
(PID.TID 0000.0001) GAD_INIT_FIXED: GAD_OlMinSize=  1  0  1
(PID.TID 0000.0001) 
(PID.TID 0000.0001) // ===================================
(PID.TID 0000.0001) // GAD parameters :
(PID.TID 0000.0001) // ===================================
(PID.TID 0000.0001) tempAdvScheme =   /* Temp. Horiz.Advection scheme selector */
(PID.TID 0000.0001)                       2
(PID.TID 0000.0001)     ;
(PID.TID 0000.0001) tempVertAdvScheme =   /* Temp. Vert. Advection scheme selector */
(PID.TID 0000.0001)                       2
(PID.TID 0000.0001)     ;
(PID.TID 0000.0001) tempMultiDimAdvec =   /* use Muti-Dim Advec method for Temp */
(PID.TID 0000.0001)                   F
(PID.TID 0000.0001)     ;
(PID.TID 0000.0001) tempSOM_Advection = /* use 2nd Order Moment Advection for Temp */
(PID.TID 0000.0001)                   F
(PID.TID 0000.0001)     ;
(PID.TID 0000.0001) AdamsBashforthGt = /* apply Adams-Bashforth extrapolation on Gt */
(PID.TID 0000.0001)                   F
(PID.TID 0000.0001)     ;
(PID.TID 0000.0001) AdamsBashforth_T = /* apply Adams-Bashforth extrapolation on Temp */
(PID.TID 0000.0001)                   F
(PID.TID 0000.0001)     ;
(PID.TID 0000.0001) saltAdvScheme =   /* Salt. Horiz.advection scheme selector */
(PID.TID 0000.0001)                       2
(PID.TID 0000.0001)     ;
(PID.TID 0000.0001) saltVertAdvScheme =   /* Salt. Vert. Advection scheme selector */
(PID.TID 0000.0001)                       2
(PID.TID 0000.0001)     ;
(PID.TID 0000.0001) saltMultiDimAdvec =   /* use Muti-Dim Advec method for Salt */
(PID.TID 0000.0001)                   F
(PID.TID 0000.0001)     ;
(PID.TID 0000.0001) saltSOM_Advection = /* use 2nd Order Moment Advection for Salt */
(PID.TID 0000.0001)                   F
(PID.TID 0000.0001)     ;
(PID.TID 0000.0001) AdamsBashforthGs = /* apply Adams-Bashforth extrapolation on Gs */
(PID.TID 0000.0001)                   T
(PID.TID 0000.0001)     ;
(PID.TID 0000.0001) AdamsBashforth_S = /* apply Adams-Bashforth extrapolation on Salt */
(PID.TID 0000.0001)                   F
(PID.TID 0000.0001)     ;
(PID.TID 0000.0001) // ===================================
(PID.TID 0000.0001) ------------------------------------------------------------
(PID.TID 0000.0001) DIAGNOSTICS_SET_LEVELS: done
(PID.TID 0000.0001)  Total Nb of available Diagnostics: ndiagt=   169
(PID.TID 0000.0001)  write list of available Diagnostics to file: available_diagnostics.log
(PID.TID 0000.0001) SETDIAG: Allocate  1 x  1 Levels for Diagnostic #    27 SALT
(PID.TID 0000.0001) SETDIAG: Allocate  1 x  1 Levels for Diagnostic #    33 SALTSQ
(PID.TID 0000.0001)   space allocated for all diagnostics:       2 levels
(PID.TID 0000.0001) DIAGNOSTICS_SET_POINTERS: Set levels for Outp.Stream: s_Diag
(PID.TID 0000.0001)  Levels:       1.
(PID.TID 0000.0001) DIAGNOSTICS_SET_POINTERS: done
(PID.TID 0000.0001) ------------------------------------------------------------
(PID.TID 0000.0001) DIAGSTATS_SET_REGIONS: define no region
(PID.TID 0000.0001) ------------------------------------------------------------
(PID.TID 0000.0001) SETDIAG: Allocate  1 Levels for Stats-Diag #    23 ETAN
(PID.TID 0000.0001) SETDIAG: Allocate  1 Levels for Stats-Diag #   145 momKE
(PID.TID 0000.0001) SETDIAG: Allocate  1 Levels for Stats-Diag #    27 SALT
(PID.TID 0000.0001) SETDIAG: Allocate  1 Levels for Stats-Diag #    33 SALTSQ
(PID.TID 0000.0001)   space allocated for all stats-diags:       4 levels
(PID.TID 0000.0001) DIAGSTATS_SET_POINTERS: done
(PID.TID 0000.0001) ------------------------------------------------------------
(PID.TID 0000.0001) DIAGSTATS_INI_IO: open file: dynStDiag.0000000000.txt , unit=     9
(PID.TID 0000.0001) INI_GLOBAL_DOMAIN: Found  24 CS-corner Pts in the domain
(PID.TID 0000.0001) %MON fCori_max                    =   1.4535016908525E-04
(PID.TID 0000.0001) %MON fCori_min                    =  -1.4535016908525E-04
(PID.TID 0000.0001) %MON fCori_mean                   =   0.0000000000000E+00
(PID.TID 0000.0001) %MON fCori_sd                     =   8.3972192788621E-05
(PID.TID 0000.0001) %MON fCoriG_max                   =   1.4544410433286E-04
(PID.TID 0000.0001) %MON fCoriG_min                   =  -1.4544410433286E-04
(PID.TID 0000.0001) %MON fCoriG_mean                  =   0.0000000000000E+00
(PID.TID 0000.0001) %MON fCoriG_sd                    =   8.3972192788621E-05
(PID.TID 0000.0001) %MON fCoriCos_max                 =   1.4540341538469E-04
(PID.TID 0000.0001) %MON fCoriCos_min                 =   5.2264550201501E-06
(PID.TID 0000.0001) %MON fCoriCos_mean                =   1.1482595466044E-04
(PID.TID 0000.0001) %MON fCoriCos_sd                  =   3.0292878037194E-05
(PID.TID 0000.0001) INI_CG2D: CG2D normalisation factor =  9.8929536739060584E-06
(PID.TID 0000.0001) 
(PID.TID 0000.0001) // =======================================================
(PID.TID 0000.0001) // Model configuration
(PID.TID 0000.0001) // =======================================================
(PID.TID 0000.0001) //
(PID.TID 0000.0001) // "Physical" paramters ( PARM01 in namelist )
(PID.TID 0000.0001) //
(PID.TID 0000.0001) buoyancyRelation = /* Type of relation to get Buoyancy */
(PID.TID 0000.0001)               'ATMOSPHERIC'
(PID.TID 0000.0001)     ;
(PID.TID 0000.0001) fluidIsAir   =  /* fluid major constituent is Air */
(PID.TID 0000.0001)                   T
(PID.TID 0000.0001)     ;
(PID.TID 0000.0001) fluidIsWater =  /* fluid major constituent is Water */
(PID.TID 0000.0001)                   F
(PID.TID 0000.0001)     ;
(PID.TID 0000.0001) usingPCoords =  /* use p (or p*) vertical coordinate */
(PID.TID 0000.0001)                   T
(PID.TID 0000.0001)     ;
(PID.TID 0000.0001) usingZCoords =  /* use z (or z*) vertical coordinate */
(PID.TID 0000.0001)                   F
(PID.TID 0000.0001)     ;
(PID.TID 0000.0001) tRef =   /* Reference temperature profile ( oC or K ) */
(PID.TID 0000.0001)                 3.000000000000000E+02       /* K =  1 */
(PID.TID 0000.0001)     ;
(PID.TID 0000.0001) sRef =   /* Reference salinity profile ( psu ) */
(PID.TID 0000.0001)                 0.000000000000000E+00       /* K =  1 */
(PID.TID 0000.0001)     ;
(PID.TID 0000.0001) useStrainTensionVisc= /* Use StrainTension Form of Viscous Operator */
(PID.TID 0000.0001)                   F
(PID.TID 0000.0001)     ;
(PID.TID 0000.0001) useVariableVisc = /* Use variable horizontal viscosity */
(PID.TID 0000.0001)                   F
(PID.TID 0000.0001)     ;
(PID.TID 0000.0001) useHarmonicVisc = /* Use harmonic horizontal viscosity */
(PID.TID 0000.0001)                   F
(PID.TID 0000.0001)     ;
(PID.TID 0000.0001) useBiharmonicVisc= /* Use biharmonic horiz.  viscosity */
(PID.TID 0000.0001)                   F
(PID.TID 0000.0001)     ;
(PID.TID 0000.0001) useSmag3D = /* Use isotropic 3-D Smagorinsky viscosity */
(PID.TID 0000.0001)                   F
(PID.TID 0000.0001)     ;
(PID.TID 0000.0001) viscAh  =   /* Lateral harmonic viscosity ( m^2/s ) */
(PID.TID 0000.0001)                 0.000000000000000E+00
(PID.TID 0000.0001)     ;
(PID.TID 0000.0001) viscA4  =   /* Lateral biharmonic viscosity ( m^4/s ) */
(PID.TID 0000.0001)                 0.000000000000000E+00
(PID.TID 0000.0001)     ;
(PID.TID 0000.0001) no_slip_sides =  /* Viscous BCs: No-slip sides */
(PID.TID 0000.0001)                   F
(PID.TID 0000.0001)     ;
(PID.TID 0000.0001) sideDragFactor = /* side-drag scaling factor (non-dim) */
(PID.TID 0000.0001)                 2.000000000000000E+00
(PID.TID 0000.0001)     ;
(PID.TID 0000.0001) viscArNr = /* vertical profile of vertical viscosity (Pa^2/s )*/
(PID.TID 0000.0001)                 0.000000000000000E+00       /* K =  1 */
(PID.TID 0000.0001)     ;
(PID.TID 0000.0001) no_slip_bottom =  /* Viscous BCs: No-slip bottom */
(PID.TID 0000.0001)                   F
(PID.TID 0000.0001)     ;
(PID.TID 0000.0001) bottomDragLinear = /* linear bottom-drag coefficient ( m/s ) */
(PID.TID 0000.0001)                 0.000000000000000E+00
(PID.TID 0000.0001)     ;
(PID.TID 0000.0001) bottomDragQuadratic = /* quadratic bottom-drag coefficient (-) */
(PID.TID 0000.0001)                 0.000000000000000E+00
(PID.TID 0000.0001)     ;
(PID.TID 0000.0001) diffKhT =   /* Laplacian diffusion of heat laterally ( m^2/s ) */
(PID.TID 0000.0001)                 0.000000000000000E+00
(PID.TID 0000.0001)     ;
(PID.TID 0000.0001) diffK4T =   /* Biharmonic diffusion of heat laterally ( m^4/s ) */
(PID.TID 0000.0001)                 0.000000000000000E+00
(PID.TID 0000.0001)     ;
(PID.TID 0000.0001) diffKhS =   /* Laplacian diffusion of salt laterally ( m^2/s ) */
(PID.TID 0000.0001)                 0.000000000000000E+00
(PID.TID 0000.0001)     ;
(PID.TID 0000.0001) diffK4S =   /* Biharmonic diffusion of salt laterally ( m^4/s ) */
(PID.TID 0000.0001)                 0.000000000000000E+00
(PID.TID 0000.0001)     ;
(PID.TID 0000.0001) diffKrNrT = /* vertical profile of vertical diffusion of Temp (Pa^2/s )*/
(PID.TID 0000.0001)                 0.000000000000000E+00       /* K =  1 */
(PID.TID 0000.0001)     ;
(PID.TID 0000.0001) diffKrNrS = /* vertical profile of vertical diffusion of Salt (Pa^2/s )*/
(PID.TID 0000.0001)                 0.000000000000000E+00       /* K =  1 */
(PID.TID 0000.0001)     ;
(PID.TID 0000.0001) diffKrBL79surf = /* Surface diffusion for Bryan and Lewis 79 ( m^2/s ) */
(PID.TID 0000.0001)                 0.000000000000000E+00
(PID.TID 0000.0001)     ;
(PID.TID 0000.0001) diffKrBL79deep = /* Deep diffusion for Bryan and Lewis 1979 ( m^2/s ) */
(PID.TID 0000.0001)                 0.000000000000000E+00
(PID.TID 0000.0001)     ;
(PID.TID 0000.0001) diffKrBL79scl = /* Depth scale for Bryan and Lewis 1979 ( m ) */
(PID.TID 0000.0001)                 2.000000000000000E+02
(PID.TID 0000.0001)     ;
(PID.TID 0000.0001) diffKrBL79Ho = /* Turning depth for Bryan and Lewis 1979 ( m ) */
(PID.TID 0000.0001)                -2.000000000000000E+03
(PID.TID 0000.0001)     ;
(PID.TID 0000.0001) ivdc_kappa = /* Implicit Vertical Diffusivity for Convection (Pa^2/s) */
(PID.TID 0000.0001)                 0.000000000000000E+00
(PID.TID 0000.0001)     ;
(PID.TID 0000.0001) hMixCriteria=  /* Criteria for mixed-layer diagnostic */
(PID.TID 0000.0001)                -8.000000000000000E-01
(PID.TID 0000.0001)     ;
(PID.TID 0000.0001) dRhoSmall =  /* Parameter for mixed-layer diagnostic */
(PID.TID 0000.0001)                 1.000000000000000E-06
(PID.TID 0000.0001)     ;
(PID.TID 0000.0001) hMixSmooth=  /* Smoothing parameter for mixed-layer diagnostic */
(PID.TID 0000.0001)                 0.000000000000000E+00
(PID.TID 0000.0001)     ;
(PID.TID 0000.0001) eosType =  /* Type of Equation of State */
(PID.TID 0000.0001)               'IDEALG'
(PID.TID 0000.0001)     ;
(PID.TID 0000.0001) celsius2K = /* 0 degree Celsius converted to Kelvin ( K ) */
(PID.TID 0000.0001)                 2.731500000000000E+02
(PID.TID 0000.0001)     ;
(PID.TID 0000.0001) atm_Rd =  /* gas constant for dry air ( J/kg/K ) */
(PID.TID 0000.0001)                 2.868571428571428E+02
(PID.TID 0000.0001)     ;
(PID.TID 0000.0001) atm_Cp =  /* specific heat (Cp) of dry air ( J/kg/K ) */
(PID.TID 0000.0001)                 1.004000000000000E+03
(PID.TID 0000.0001)     ;
(PID.TID 0000.0001) atm_kappa =  /* kappa (=Rd/Cp ) of dry air */
(PID.TID 0000.0001)                 2.857142857142857E-01
(PID.TID 0000.0001)     ;
(PID.TID 0000.0001) atm_Rq = /* water vap. specific vol. anomaly relative to dry air */
(PID.TID 0000.0001)                 0.000000000000000E+00
(PID.TID 0000.0001)     ;
(PID.TID 0000.0001) atm_Po =  /* standard reference pressure ( Pa ) */
(PID.TID 0000.0001)                 1.000000000000000E+05
(PID.TID 0000.0001)     ;
(PID.TID 0000.0001) integr_GeoPot =  /* select how the geopotential is integrated */
(PID.TID 0000.0001)                       2
(PID.TID 0000.0001)     ;
(PID.TID 0000.0001) selectFindRoSurf=  /* select how Surf.Ref. pressure is defined */
(PID.TID 0000.0001)                       0
(PID.TID 0000.0001)     ;
(PID.TID 0000.0001) rhoConst  = /* Reference density (Boussinesq)  ( kg/m^3 ) */
(PID.TID 0000.0001)                 1.000000000000000E+00
(PID.TID 0000.0001)     ;
(PID.TID 0000.0001) rhoFacC = /* normalized Reference density @ cell-Center (-) */
(PID.TID 0000.0001)                 1.000000000000000E+00       /* K =  1 */
(PID.TID 0000.0001)     ;
(PID.TID 0000.0001) rhoFacF = /* normalized Reference density @ W-Interface (-) */
(PID.TID 0000.0001)     2 @  1.000000000000000E+00              /* K =  1:  2 */
(PID.TID 0000.0001)     ;
(PID.TID 0000.0001) rhoConstFresh = /* Fresh-water reference density ( kg/m^3 ) */
(PID.TID 0000.0001)                 1.000000000000000E+00
(PID.TID 0000.0001)     ;
(PID.TID 0000.0001) gravity =   /* Gravitational acceleration ( m/s^2 ) */
(PID.TID 0000.0001)                 9.810000000000000E+00
(PID.TID 0000.0001)     ;
(PID.TID 0000.0001) gBaro =   /* Barotropic gravity ( m/s^2 ) */
(PID.TID 0000.0001)                 9.810000000000000E+00
(PID.TID 0000.0001)     ;
(PID.TID 0000.0001) rotationPeriod =   /* Rotation Period ( s ) */
(PID.TID 0000.0001)                 8.640000000000000E+04
(PID.TID 0000.0001)     ;
(PID.TID 0000.0001) omega =   /* Angular velocity ( rad/s ) */
(PID.TID 0000.0001)                 7.272205216643040E-05
(PID.TID 0000.0001)     ;
(PID.TID 0000.0001) f0 =   /* Reference coriolis parameter ( 1/s ) */
(PID.TID 0000.0001)                 1.000000000000000E-04
(PID.TID 0000.0001)     ;
(PID.TID 0000.0001) beta =   /* Beta ( 1/(m.s) ) */
(PID.TID 0000.0001)                 9.999999999999999E-12
(PID.TID 0000.0001)     ;
(PID.TID 0000.0001) fPrime =   /* Second coriolis parameter ( 1/s ) */
(PID.TID 0000.0001)                 0.000000000000000E+00
(PID.TID 0000.0001)     ;
(PID.TID 0000.0001) rigidLid =   /* Rigid lid on/off flag */
(PID.TID 0000.0001)                   F
(PID.TID 0000.0001)     ;
(PID.TID 0000.0001) implicitFreeSurface =   /* Implicit free surface on/off flag */
(PID.TID 0000.0001)                   T
(PID.TID 0000.0001)     ;
(PID.TID 0000.0001) freeSurfFac =   /* Implicit free surface factor */
(PID.TID 0000.0001)                 1.000000000000000E+00
(PID.TID 0000.0001)     ;
(PID.TID 0000.0001) implicSurfPress =  /* Surface Pressure implicit factor (0-1)*/
(PID.TID 0000.0001)                 1.000000000000000E+00
(PID.TID 0000.0001)     ;
(PID.TID 0000.0001) implicDiv2Dflow =  /* Barot. Flow Div. implicit factor (0-1)*/
(PID.TID 0000.0001)                 1.000000000000000E+00
(PID.TID 0000.0001)     ;
(PID.TID 0000.0001) uniformLin_PhiSurf = /* use uniform Bo_surf on/off flag*/
(PID.TID 0000.0001)                   T
(PID.TID 0000.0001)     ;
(PID.TID 0000.0001) uniformFreeSurfLev = /* free-surface level-index is uniform */
(PID.TID 0000.0001)                   F
(PID.TID 0000.0001)     ;
(PID.TID 0000.0001) hFacMin =   /* minimum partial cell factor (hFac) */
(PID.TID 0000.0001)                 1.000000000000000E+00
(PID.TID 0000.0001)     ;
(PID.TID 0000.0001) hFacMinDr = /* minimum partial cell thickness (Pa) */
(PID.TID 0000.0001)                 1.000000000000000E+00
(PID.TID 0000.0001)     ;
(PID.TID 0000.0001) exactConserv =  /* Exact Volume Conservation on/off flag*/
(PID.TID 0000.0001)                   F
(PID.TID 0000.0001)     ;
(PID.TID 0000.0001) linFSConserveTr = /* Tracer correction for Lin Free Surface on/off flag*/
(PID.TID 0000.0001)                   F
(PID.TID 0000.0001)     ;
(PID.TID 0000.0001) nonlinFreeSurf = /* Non-linear Free Surf. options (-1,0,1,2,3)*/
(PID.TID 0000.0001)                       0
(PID.TID 0000.0001)      -1,0= Off ; 1,2,3= On, 2=+rescale gU,gV, 3=+update cg2d solv.
(PID.TID 0000.0001)     ;
(PID.TID 0000.0001) hFacInf =   /* lower threshold for hFac (nonlinFreeSurf only)*/
(PID.TID 0000.0001)                 2.000000000000000E-01
(PID.TID 0000.0001)     ;
(PID.TID 0000.0001) hFacSup =   /* upper threshold for hFac (nonlinFreeSurf only)*/
(PID.TID 0000.0001)                 2.000000000000000E+00
(PID.TID 0000.0001)     ;
(PID.TID 0000.0001) select_rStar = /* r* Vertical coord. options (=0 r coord.; >0 uses r*)*/
(PID.TID 0000.0001)                       0
(PID.TID 0000.0001)     ;
(PID.TID 0000.0001) useRealFreshWaterFlux = /* Real Fresh Water Flux on/off flag*/
(PID.TID 0000.0001)                   F
(PID.TID 0000.0001)     ;
(PID.TID 0000.0001) temp_EvPrRn = /* Temp. of Evap/Prec/R (UNSET=use local T)(oC)*/
(PID.TID 0000.0001)                 1.234567000000000E+05
(PID.TID 0000.0001)     ;
(PID.TID 0000.0001) salt_EvPrRn = /* Salin. of Evap/Prec/R (UNSET=use local S)(psu)*/
(PID.TID 0000.0001)                 0.000000000000000E+00
(PID.TID 0000.0001)     ;
(PID.TID 0000.0001) selectAddFluid = /* option for mass source/sink of fluid (=0: off) */
(PID.TID 0000.0001)                       0
(PID.TID 0000.0001)     ;
(PID.TID 0000.0001) temp_addMass = /* Temp. of addMass array (UNSET=use local T)(oC)*/
(PID.TID 0000.0001)                 1.234567000000000E+05
(PID.TID 0000.0001)     ;
(PID.TID 0000.0001) salt_addMass = /* Salin. of addMass array (UNSET=use local S)(psu)*/
(PID.TID 0000.0001)                 0.000000000000000E+00
(PID.TID 0000.0001)     ;
(PID.TID 0000.0001) convertFW2Salt = /* convert F.W. Flux to Salt Flux (-1=use local S)(psu)*/
(PID.TID 0000.0001)                 3.500000000000000E+01
(PID.TID 0000.0001)     ;
(PID.TID 0000.0001) use3Dsolver = /* use 3-D pressure solver on/off flag */
(PID.TID 0000.0001)                   F
(PID.TID 0000.0001)     ;
(PID.TID 0000.0001) nonHydrostatic =  /* Non-Hydrostatic on/off flag */
(PID.TID 0000.0001)                   F
(PID.TID 0000.0001)     ;
(PID.TID 0000.0001) nh_Am2 = /* Non-Hydrostatic terms scaling factor */
(PID.TID 0000.0001)                 1.000000000000000E+00
(PID.TID 0000.0001)     ;
(PID.TID 0000.0001) implicitNHPress = /* Non-Hyd Pressure implicit factor (0-1)*/
(PID.TID 0000.0001)                 1.000000000000000E+00
(PID.TID 0000.0001)     ;
(PID.TID 0000.0001) selectNHfreeSurf = /* Non-Hyd (free-)Surface option */
(PID.TID 0000.0001)                       0
(PID.TID 0000.0001)     ;
(PID.TID 0000.0001) quasiHydrostatic = /* Quasi-Hydrostatic on/off flag */
(PID.TID 0000.0001)                   F
(PID.TID 0000.0001)     ;
(PID.TID 0000.0001) calc_wVelocity = /* vertical velocity calculation on/off flag */
(PID.TID 0000.0001)                   T
(PID.TID 0000.0001)     ;
(PID.TID 0000.0001) momStepping =  /* Momentum equation on/off flag */
(PID.TID 0000.0001)                   T
(PID.TID 0000.0001)     ;
(PID.TID 0000.0001) vectorInvariantMomentum= /* Vector-Invariant Momentum on/off */
(PID.TID 0000.0001)                   T
(PID.TID 0000.0001)     ;
(PID.TID 0000.0001) momAdvection =  /* Momentum advection on/off flag */
(PID.TID 0000.0001)                   T
(PID.TID 0000.0001)     ;
(PID.TID 0000.0001) momViscosity =  /* Momentum viscosity on/off flag */
(PID.TID 0000.0001)                   T
(PID.TID 0000.0001)     ;
(PID.TID 0000.0001) momImplVertAdv= /* Momentum implicit vert. advection on/off*/
(PID.TID 0000.0001)                   F
(PID.TID 0000.0001)     ;
(PID.TID 0000.0001) implicitViscosity = /* Implicit viscosity on/off flag */
(PID.TID 0000.0001)                   F
(PID.TID 0000.0001)     ;
(PID.TID 0000.0001) metricTerms =  /* metric-Terms on/off flag */
(PID.TID 0000.0001)                   F
(PID.TID 0000.0001)     ;
(PID.TID 0000.0001) useNHMTerms = /* Non-Hydrostatic Metric-Terms on/off */
(PID.TID 0000.0001)                   F
(PID.TID 0000.0001)     ;
(PID.TID 0000.0001) selectCoriMap = /* Coriolis Map options (0,1,2,3)*/
(PID.TID 0000.0001)                       2
(PID.TID 0000.0001)     0= f-Plane ; 1= Beta-Plane ; 2= Spherical ; 3= read from file
(PID.TID 0000.0001)     ;
(PID.TID 0000.0001) use3dCoriolis = /* 3-D Coriolis on/off flag */
(PID.TID 0000.0001)                   F
(PID.TID 0000.0001)     ;
(PID.TID 0000.0001) useCoriolis =  /* Coriolis on/off flag */
(PID.TID 0000.0001)                   T
(PID.TID 0000.0001)     ;
(PID.TID 0000.0001) useCDscheme =  /* CD scheme on/off flag */
(PID.TID 0000.0001)                   F
(PID.TID 0000.0001)     ;
(PID.TID 0000.0001) useEnergyConservingCoriolis= /* Flx-Form Coriolis scheme flag */
(PID.TID 0000.0001)                   F
(PID.TID 0000.0001)     ;
(PID.TID 0000.0001) useJamartWetPoints= /* Coriolis WetPoints method flag */
(PID.TID 0000.0001)                   F
(PID.TID 0000.0001)     ;
(PID.TID 0000.0001) useJamartMomAdv= /* V.I Non-linear terms Jamart flag */
(PID.TID 0000.0001)                   F
(PID.TID 0000.0001)     ;
(PID.TID 0000.0001) useAbsVorticity= /* V.I Works with f+zeta in Coriolis */
(PID.TID 0000.0001)                   F
(PID.TID 0000.0001)     ;
(PID.TID 0000.0001) selectVortScheme= /* V.I Scheme selector for Vorticity-Term */
(PID.TID 0000.0001)                       1
(PID.TID 0000.0001)    = 0 : enstrophy (Shallow-Water Eq.) conserving scheme by Sadourny, JAS 75
(PID.TID 0000.0001)    = 1 : same as 0 with modified hFac
(PID.TID 0000.0001)    = 2 : energy conserving scheme (used by Sadourny in JAS 75 paper)
(PID.TID 0000.0001)    = 3 : energy (general) and enstrophy (2D, nonDiv.) conserving scheme
(PID.TID 0000.0001)          from Sadourny (Burridge & Haseler, ECMWF Rep.4, 1977)
(PID.TID 0000.0001)     ;
(PID.TID 0000.0001) upwindVorticity= /* V.I Upwind bias vorticity flag */
(PID.TID 0000.0001)                   F
(PID.TID 0000.0001)     ;
(PID.TID 0000.0001) highOrderVorticity= /* V.I High order vort. advect. flag */
(PID.TID 0000.0001)                   F
(PID.TID 0000.0001)     ;
(PID.TID 0000.0001) upwindShear= /* V.I Upwind vertical Shear advection flag */
(PID.TID 0000.0001)                   F
(PID.TID 0000.0001)     ;
(PID.TID 0000.0001) selectKEscheme= /* V.I Kinetic Energy scheme selector */
(PID.TID 0000.0001)                       0
(PID.TID 0000.0001)     ;
(PID.TID 0000.0001) momForcing =  /* Momentum forcing on/off flag */
(PID.TID 0000.0001)                   T
(PID.TID 0000.0001)     ;
(PID.TID 0000.0001) momPressureForcing =  /* Momentum pressure term on/off flag */
(PID.TID 0000.0001)                   T
(PID.TID 0000.0001)     ;
(PID.TID 0000.0001) implicitIntGravWave= /* Implicit Internal Gravity Wave flag */
(PID.TID 0000.0001)                   F
(PID.TID 0000.0001)     ;
(PID.TID 0000.0001) staggerTimeStep =    /* Stagger time stepping on/off flag */
(PID.TID 0000.0001)                   F
(PID.TID 0000.0001)     ;
(PID.TID 0000.0001) doResetHFactors = /* reset thickness factors @ each time-step */
(PID.TID 0000.0001)                   F
(PID.TID 0000.0001)     ;
(PID.TID 0000.0001) multiDimAdvection =  /* enable/disable Multi-Dim Advection */
(PID.TID 0000.0001)                   T
(PID.TID 0000.0001)     ;
(PID.TID 0000.0001) useMultiDimAdvec =   /* Multi-Dim Advection is/is-not used */
(PID.TID 0000.0001)                   F
(PID.TID 0000.0001)     ;
(PID.TID 0000.0001) implicitDiffusion = /* Implicit Diffusion on/off flag */
(PID.TID 0000.0001)                   F
(PID.TID 0000.0001)     ;
(PID.TID 0000.0001) tempStepping =  /* Temperature equation on/off flag */
(PID.TID 0000.0001)                   F
(PID.TID 0000.0001)     ;
(PID.TID 0000.0001) tempAdvection = /* Temperature advection on/off flag */
(PID.TID 0000.0001)                   F
(PID.TID 0000.0001)     ;
(PID.TID 0000.0001) tempImplVertAdv = /* Temp. implicit vert. advection on/off */
(PID.TID 0000.0001)                   F
(PID.TID 0000.0001)     ;
(PID.TID 0000.0001) tempForcing  =  /* Temperature forcing on/off flag */
(PID.TID 0000.0001)                   F
(PID.TID 0000.0001)     ;
(PID.TID 0000.0001) doThetaClimRelax = /* apply SST relaxation on/off flag */
(PID.TID 0000.0001)                   F
(PID.TID 0000.0001)     ;
(PID.TID 0000.0001) tempIsActiveTr = /* Temp. is a dynamically Active Tracer */
(PID.TID 0000.0001)                   F
(PID.TID 0000.0001)     ;
(PID.TID 0000.0001) saltStepping =  /* Salinity equation on/off flag */
(PID.TID 0000.0001)                   T
(PID.TID 0000.0001)     ;
(PID.TID 0000.0001) saltAdvection = /* Salinity advection on/off flag */
(PID.TID 0000.0001)                   T
(PID.TID 0000.0001)     ;
(PID.TID 0000.0001) saltImplVertAdv = /* Sali. implicit vert. advection on/off */
(PID.TID 0000.0001)                   F
(PID.TID 0000.0001)     ;
(PID.TID 0000.0001) saltForcing  =  /* Salinity forcing on/off flag */
(PID.TID 0000.0001)                   T
(PID.TID 0000.0001)     ;
(PID.TID 0000.0001) doSaltClimRelax = /* apply SSS relaxation on/off flag */
(PID.TID 0000.0001)                   F
(PID.TID 0000.0001)     ;
(PID.TID 0000.0001) saltIsActiveTr = /* Salt  is a dynamically Active Tracer */
(PID.TID 0000.0001)                   F
(PID.TID 0000.0001)     ;
(PID.TID 0000.0001)  readBinaryPrec = /* Precision used for reading binary files */
(PID.TID 0000.0001)                      64
(PID.TID 0000.0001)     ;
(PID.TID 0000.0001) writeBinaryPrec = /* Precision used for writing binary files */
(PID.TID 0000.0001)                      64
(PID.TID 0000.0001)     ;
(PID.TID 0000.0001)  globalFiles = /* write "global" (=not per tile) files */
(PID.TID 0000.0001)                   F
(PID.TID 0000.0001)     ;
(PID.TID 0000.0001)  useSingleCpuIO = /* only master MPI process does I/O */
(PID.TID 0000.0001)                   F
(PID.TID 0000.0001)     ;
(PID.TID 0000.0001) /* debLev[*]  : level of debug & auxiliary message printing */
(PID.TID 0000.0001) debLevZero =  0 ; /* level of disabled aux. msg printing */
(PID.TID 0000.0001)    debLevA =  1 ; /* level of minimum  aux. msg printing */
(PID.TID 0000.0001)    debLevB =  2 ; /* level of low aux. print (report read-file opening)*/
(PID.TID 0000.0001)    debLevC =  3 ; /* level of moderate debug prt (most pkgs debug msg) */
(PID.TID 0000.0001)    debLevD =  4 ; /* level of enhanced debug prt (add DEBUG_STATS prt) */
(PID.TID 0000.0001)    debLevE =  5 ; /* level of extensive debug printing */
(PID.TID 0000.0001) debugLevel =  /* select debug printing level */
(PID.TID 0000.0001)                       2
(PID.TID 0000.0001)     ;
(PID.TID 0000.0001) //
(PID.TID 0000.0001) // Elliptic solver(s) paramters ( PARM02 in namelist )
(PID.TID 0000.0001) //
(PID.TID 0000.0001) cg2dMaxIters =   /* Upper limit on 2d con. grad iterations  */
(PID.TID 0000.0001)                     600
(PID.TID 0000.0001)     ;
(PID.TID 0000.0001) cg2dChkResFreq =   /* 2d con. grad convergence test frequency */
(PID.TID 0000.0001)                       1
(PID.TID 0000.0001)     ;
(PID.TID 0000.0001) cg2dUseMinResSol= /* use cg2d last-iter(=0) / min-resid.(=1) solution */
(PID.TID 0000.0001)                       0
(PID.TID 0000.0001)     ;
(PID.TID 0000.0001) cg2dTargetResidual =   /* 2d con. grad target residual  */
(PID.TID 0000.0001)                 1.000000000000000E-12
(PID.TID 0000.0001)     ;
(PID.TID 0000.0001) cg2dTargetResWunit =   /* CG2d target residual [W units] */
(PID.TID 0000.0001)                -1.000000000000000E+00
(PID.TID 0000.0001)     ;
(PID.TID 0000.0001) cg2dPreCondFreq =   /* Freq. for updating cg2d preconditioner */
(PID.TID 0000.0001)                       1
(PID.TID 0000.0001)     ;
(PID.TID 0000.0001) useSRCGSolver =  /* use single reduction CG solver(s) */
(PID.TID 0000.0001)                   F
(PID.TID 0000.0001)     ;
(PID.TID 0000.0001) printResidualFreq = /* Freq. for printing CG residual */
(PID.TID 0000.0001)                       0
(PID.TID 0000.0001)     ;
(PID.TID 0000.0001) //
(PID.TID 0000.0001) // Time stepping paramters ( PARM03 in namelist )
(PID.TID 0000.0001) //
(PID.TID 0000.0001) deltaTMom =   /* Momentum equation timestep ( s ) */
(PID.TID 0000.0001)                 1.200000000000000E+03
(PID.TID 0000.0001)     ;
(PID.TID 0000.0001) deltaTFreeSurf = /* FreeSurface equation timestep ( s ) */
(PID.TID 0000.0001)                 1.200000000000000E+03
(PID.TID 0000.0001)     ;
(PID.TID 0000.0001) dTtracerLev =  /* Tracer equation timestep ( s ) */
(PID.TID 0000.0001)                 1.200000000000000E+03       /* K =  1 */
(PID.TID 0000.0001)     ;
(PID.TID 0000.0001) deltaTClock  =   /* Model clock timestep ( s ) */
(PID.TID 0000.0001)                 1.200000000000000E+03
(PID.TID 0000.0001)     ;
(PID.TID 0000.0001) cAdjFreq =   /* Convective adjustment interval ( s ) */
(PID.TID 0000.0001)                 0.000000000000000E+00
(PID.TID 0000.0001)     ;
(PID.TID 0000.0001) momForcingOutAB = /* =1: take Momentum Forcing out of Adams-Bash. stepping */
(PID.TID 0000.0001)                       0
(PID.TID 0000.0001)     ;
(PID.TID 0000.0001) tracForcingOutAB = /* =1: take T,S,pTr Forcing out of Adams-Bash. stepping */
(PID.TID 0000.0001)                       0
(PID.TID 0000.0001)     ;
(PID.TID 0000.0001) momDissip_In_AB = /* put Dissipation Tendency in Adams-Bash. stepping */
(PID.TID 0000.0001)                   T
(PID.TID 0000.0001)     ;
(PID.TID 0000.0001) doAB_onGtGs = /* apply AB on Tendencies (rather than on T,S)*/
(PID.TID 0000.0001)                   T
(PID.TID 0000.0001)     ;
(PID.TID 0000.0001) abEps =   /* Adams-Bashforth-2 stabilizing weight */
(PID.TID 0000.0001)                 1.000000000000000E-01
(PID.TID 0000.0001)     ;
(PID.TID 0000.0001) pickupStrictlyMatch= /* stop if pickup do not strictly match */
(PID.TID 0000.0001)                   T
(PID.TID 0000.0001)     ;
(PID.TID 0000.0001) nIter0   =   /* Run starting timestep number */
(PID.TID 0000.0001)                       0
(PID.TID 0000.0001)     ;
(PID.TID 0000.0001) nTimeSteps = /* Number of timesteps */
(PID.TID 0000.0001)                      20
(PID.TID 0000.0001)     ;
(PID.TID 0000.0001) nEndIter =   /* Run ending timestep number */
(PID.TID 0000.0001)                      20
(PID.TID 0000.0001)     ;
(PID.TID 0000.0001) baseTime =   /* Model base time ( s ) */
(PID.TID 0000.0001)                 0.000000000000000E+00
(PID.TID 0000.0001)     ;
(PID.TID 0000.0001) startTime =  /* Run start time ( s ) */
(PID.TID 0000.0001)                 0.000000000000000E+00
(PID.TID 0000.0001)     ;
(PID.TID 0000.0001) endTime  =   /* Integration ending time ( s ) */
(PID.TID 0000.0001)                 2.400000000000000E+04
(PID.TID 0000.0001)     ;
(PID.TID 0000.0001) pChkPtFreq = /* Permanent restart/pickup file interval ( s ) */
(PID.TID 0000.0001)                 0.000000000000000E+00
(PID.TID 0000.0001)     ;
(PID.TID 0000.0001) chkPtFreq  = /* Rolling restart/pickup file interval ( s ) */
(PID.TID 0000.0001)                 0.000000000000000E+00
(PID.TID 0000.0001)     ;
(PID.TID 0000.0001) pickup_write_mdsio =   /* Model IO flag. */
(PID.TID 0000.0001)                   T
(PID.TID 0000.0001)     ;
(PID.TID 0000.0001) pickup_read_mdsio =   /* Model IO flag. */
(PID.TID 0000.0001)                   T
(PID.TID 0000.0001)     ;
(PID.TID 0000.0001) pickup_write_immed =   /* Model IO flag. */
(PID.TID 0000.0001)                   F
(PID.TID 0000.0001)     ;
(PID.TID 0000.0001) writePickupAtEnd =   /* Model IO flag. */
(PID.TID 0000.0001)                   T
(PID.TID 0000.0001)     ;
(PID.TID 0000.0001) dumpFreq =   /* Model state write out interval ( s ). */
(PID.TID 0000.0001)                 8.640000000000000E+04
(PID.TID 0000.0001)     ;
(PID.TID 0000.0001) dumpInitAndLast= /* write out Initial & Last iter. model state */
(PID.TID 0000.0001)                   T
(PID.TID 0000.0001)     ;
(PID.TID 0000.0001) snapshot_mdsio =   /* Model IO flag. */
(PID.TID 0000.0001)                   T
(PID.TID 0000.0001)     ;
(PID.TID 0000.0001) monitorFreq =   /* Monitor output interval ( s ). */
(PID.TID 0000.0001)                 1.000000000000000E+00
(PID.TID 0000.0001)     ;
(PID.TID 0000.0001) monitorSelect = /* select group of variables to monitor */
(PID.TID 0000.0001)                       2
(PID.TID 0000.0001)     ;
(PID.TID 0000.0001) monitor_stdio =   /* Model IO flag. */
(PID.TID 0000.0001)                   T
(PID.TID 0000.0001)     ;
(PID.TID 0000.0001) externForcingPeriod =   /* forcing period (s) */
(PID.TID 0000.0001)                 0.000000000000000E+00
(PID.TID 0000.0001)     ;
(PID.TID 0000.0001) externForcingCycle =   /* period of the cyle (s). */
(PID.TID 0000.0001)                 0.000000000000000E+00
(PID.TID 0000.0001)     ;
(PID.TID 0000.0001) tauThetaClimRelax =   /* relaxation time scale (s) */
(PID.TID 0000.0001)                 0.000000000000000E+00
(PID.TID 0000.0001)     ;
(PID.TID 0000.0001) tauSaltClimRelax =   /* relaxation time scale (s) */
(PID.TID 0000.0001)                 0.000000000000000E+00
(PID.TID 0000.0001)     ;
(PID.TID 0000.0001) latBandClimRelax =   /* max. Lat. where relaxation */
(PID.TID 0000.0001)                 1.800000000000000E+02
(PID.TID 0000.0001)     ;
(PID.TID 0000.0001) //
(PID.TID 0000.0001) // Gridding paramters ( PARM04 in namelist )
(PID.TID 0000.0001) //
(PID.TID 0000.0001) usingCartesianGrid = /* Cartesian coordinates flag ( True/False ) */
(PID.TID 0000.0001)                   F
(PID.TID 0000.0001)     ;
(PID.TID 0000.0001) usingCylindricalGrid = /* Cylindrical coordinates flag ( True/False ) */
(PID.TID 0000.0001)                   F
(PID.TID 0000.0001)     ;
(PID.TID 0000.0001) usingSphericalPolarGrid = /* Spherical coordinates flag ( True/False ) */
(PID.TID 0000.0001)                   F
(PID.TID 0000.0001)     ;
(PID.TID 0000.0001) usingCurvilinearGrid = /* Curvilinear coordinates flag ( True/False ) */
(PID.TID 0000.0001)                   T
(PID.TID 0000.0001)     ;
(PID.TID 0000.0001) selectSigmaCoord = /* Hybrid-Sigma Vert. Coordinate option */
(PID.TID 0000.0001)                       0
(PID.TID 0000.0001)     ;
(PID.TID 0000.0001) Ro_SeaLevel = /* r(1) ( units of r == Pa ) */
(PID.TID 0000.0001)                 1.000000000000000E+05
(PID.TID 0000.0001)     ;
(PID.TID 0000.0001) rSigmaBnd = /* r/sigma transition ( units of r == Pa ) */
(PID.TID 0000.0001)                 1.234567000000000E+05
(PID.TID 0000.0001)     ;
(PID.TID 0000.0001) rkSign =   /* index orientation relative to vertical coordinate */
(PID.TID 0000.0001)                -1.000000000000000E+00
(PID.TID 0000.0001)     ;
(PID.TID 0000.0001) gravitySign = /* gravity orientation relative to vertical coordinate */
(PID.TID 0000.0001)                 1.000000000000000E+00
(PID.TID 0000.0001)     ;
(PID.TID 0000.0001) mass2rUnit = /* convert mass per unit area [kg/m2] to r-units [Pa] */
(PID.TID 0000.0001)                 9.810000000000000E+00
(PID.TID 0000.0001)     ;
(PID.TID 0000.0001) rUnit2mass = /* convert r-units [Pa] to mass per unit area [kg/m2] */
(PID.TID 0000.0001)                 1.019367991845056E-01
(PID.TID 0000.0001)     ;
(PID.TID 0000.0001) drC =   /* C spacing ( units of r ) */
(PID.TID 0000.0001)     2 @  5.000000000000000E+04              /* K =  1:  2 */
(PID.TID 0000.0001)     ;
(PID.TID 0000.0001) drF =   /* W spacing ( units of r ) */
(PID.TID 0000.0001)                 1.000000000000000E+05       /* K =  1 */
(PID.TID 0000.0001)     ;
(PID.TID 0000.0001) radius_fromHorizGrid = /* sphere Radius of input horiz. grid */
(PID.TID 0000.0001)                 6.370000000000000E+06
(PID.TID 0000.0001)     ;
(PID.TID 0000.0001) rSphere =  /* Radius ( ignored - cartesian, m - spherical ) */
(PID.TID 0000.0001)                 6.370000000000000E+06
(PID.TID 0000.0001)     ;
(PID.TID 0000.0001) deepAtmosphere = /* Deep/Shallow Atmosphere flag (True/False) */
(PID.TID 0000.0001)                   F
(PID.TID 0000.0001)     ;
(PID.TID 0000.0001) xC =  /* xC(:,1,:,1) : P-point X coord ( deg. or m if cartesian) */
(PID.TID 0000.0001)                 1.356047800523947E+02,      /* I =  1 */
(PID.TID 0000.0001)                 1.370435872772412E+02,      /* I =  2 */
(PID.TID 0000.0001)                 1.387794444661104E+02,      /* I =  3 */
(PID.TID 0000.0001)      . . .
(PID.TID 0000.0001)                -9.929180780271940E+01,      /* I = 46 */
(PID.TID 0000.0001)                -9.560347533582234E+01,      /* I = 47 */
(PID.TID 0000.0001)                -9.187260851303344E+01,      /* I = 48 */
(PID.TID 0000.0001)                -8.812739148696656E+01,      /* I = 49 */
(PID.TID 0000.0001)                -8.439652466417766E+01,      /* I = 50 */
(PID.TID 0000.0001)                -8.070819219728060E+01,      /* I = 51 */
(PID.TID 0000.0001)      . . .
(PID.TID 0000.0001)                -4.781369642513038E+01,      /* I = 94 */
(PID.TID 0000.0001)                -4.620805468796295E+01,      /* I = 95 */
(PID.TID 0000.0001)                -4.500000000000000E+01,      /* I = 96 */
(PID.TID 0000.0001)                -4.439521994760534E+01,      /* I = 97 */
(PID.TID 0000.0001)                -4.416320923386709E+01,      /* I = 98 */
(PID.TID 0000.0001)                -4.402796178188066E+01,      /* I = 99 */
(PID.TID 0000.0001)      . . .
(PID.TID 0000.0001)                 4.634889787907130E+01,      /* I =142 */
(PID.TID 0000.0001)                 4.635306005905802E+01,      /* I =143 */
(PID.TID 0000.0001)                 4.635509675007167E+01,      /* I =144 */
(PID.TID 0000.0001)                 4.635509675007167E+01,      /* I =145 */
(PID.TID 0000.0001)                 4.635306005905802E+01,      /* I =146 */
(PID.TID 0000.0001)                 4.634889787907130E+01,      /* I =147 */
(PID.TID 0000.0001)      . . .
(PID.TID 0000.0001)                -4.218630357486962E+01,      /* I =190 */
(PID.TID 0000.0001)                -4.379194531203705E+01,      /* I =191 */
(PID.TID 0000.0001)                -4.500000000000000E+01       /* I =192 */
(PID.TID 0000.0001)     ;
(PID.TID 0000.0001) yC =  /* yC(1,:,1,:) : P-point Y coord ( deg. or m if cartesian) */
(PID.TID 0000.0001)                -3.497677942598243E+01,      /* J =  1 */
(PID.TID 0000.0001)                -3.374005967394886E+01,      /* J =  2 */
(PID.TID 0000.0001)                -3.220655175667454E+01,      /* J =  3 */
(PID.TID 0000.0001)                -3.045756348838641E+01,      /* J =  4 */
(PID.TID 0000.0001)                -2.853728129852918E+01,      /* J =  5 */
(PID.TID 0000.0001)                -2.647426640173173E+01,      /* J =  6 */
(PID.TID 0000.0001)                -2.428936657094636E+01,      /* J =  7 */
(PID.TID 0000.0001)                -2.199915808312262E+01,      /* J =  8 */
(PID.TID 0000.0001)                -1.961768597440146E+01,      /* J =  9 */
(PID.TID 0000.0001)                -1.715743888281371E+01,      /* J = 10 */
(PID.TID 0000.0001)                -1.462993396899330E+01,      /* J = 11 */
(PID.TID 0000.0001)                -1.204608340464756E+01,      /* J = 12 */
(PID.TID 0000.0001)                -9.416429130284818E+00,      /* J = 13 */
(PID.TID 0000.0001)                -6.751293662992216E+00,      /* J = 14 */
(PID.TID 0000.0001)                -4.060875511835959E+00,      /* J = 15 */
(PID.TID 0000.0001)                -1.355307764409121E+00,      /* J = 16 */
(PID.TID 0000.0001)                 1.355307764409121E+00,      /* J = 17 */
(PID.TID 0000.0001)                 4.060875511835959E+00,      /* J = 18 */
(PID.TID 0000.0001)                 6.751293662992216E+00,      /* J = 19 */
(PID.TID 0000.0001)                 9.416429130284818E+00,      /* J = 20 */
(PID.TID 0000.0001)                 1.204608340464756E+01,      /* J = 21 */
(PID.TID 0000.0001)                 1.462993396899330E+01,      /* J = 22 */
(PID.TID 0000.0001)                 1.715743888281371E+01,      /* J = 23 */
(PID.TID 0000.0001)                 1.961768597440146E+01,      /* J = 24 */
(PID.TID 0000.0001)                 2.199915808312262E+01,      /* J = 25 */
(PID.TID 0000.0001)                 2.428936657094636E+01,      /* J = 26 */
(PID.TID 0000.0001)                 2.647426640173173E+01,      /* J = 27 */
(PID.TID 0000.0001)                 2.853728129852918E+01,      /* J = 28 */
(PID.TID 0000.0001)                 3.045756348838641E+01,      /* J = 29 */
(PID.TID 0000.0001)                 3.220655175667454E+01,      /* J = 30 */
(PID.TID 0000.0001)                 3.374005967394886E+01,      /* J = 31 */
(PID.TID 0000.0001)                 3.497677942598243E+01       /* J = 32 */
(PID.TID 0000.0001)     ;
(PID.TID 0000.0001) rcoord = /* P-point R coordinate (  units of r ) */
(PID.TID 0000.0001)                 5.000000000000000E+04       /* K =  1 */
(PID.TID 0000.0001)     ;
(PID.TID 0000.0001) rF =   /* W-Interf. R coordinate (  units of r ) */
(PID.TID 0000.0001)                 1.000000000000000E+05,      /* K =  1 */
(PID.TID 0000.0001)                 0.000000000000000E+00       /* K =  2 */
(PID.TID 0000.0001)     ;
(PID.TID 0000.0001) deepFacC = /* deep-model grid factor @ cell-Center (-) */
(PID.TID 0000.0001)                 1.000000000000000E+00       /* K =  1 */
(PID.TID 0000.0001)     ;
(PID.TID 0000.0001) deepFacF = /* deep-model grid factor @ W-Interface (-) */
(PID.TID 0000.0001)     2 @  1.000000000000000E+00              /* K =  1:  2 */
(PID.TID 0000.0001)     ;
(PID.TID 0000.0001) rVel2wUnit = /* convert units: rVel -> wSpeed (=1 if z-coord)*/
(PID.TID 0000.0001)                 8.772389689820882E-02,      /* K =  1 */
(PID.TID 0000.0001)                 1.000000000000000E+00       /* K =  2 */
(PID.TID 0000.0001)     ;
(PID.TID 0000.0001) wUnit2rVel = /* convert units: wSpeed -> rVel (=1 if z-coord)*/
(PID.TID 0000.0001)                 1.139940239043825E+01,      /* K =  1 */
(PID.TID 0000.0001)                 1.000000000000000E+00       /* K =  2 */
(PID.TID 0000.0001)     ;
(PID.TID 0000.0001) dBdrRef = /* Vertical grad. of reference buoyancy [(m/s/r)^2] */
(PID.TID 0000.0001)                 0.000000000000000E+00       /* K =  1 */
(PID.TID 0000.0001)     ;
(PID.TID 0000.0001) rotateGrid = /* use rotated grid ( True/False ) */
(PID.TID 0000.0001)                   F
(PID.TID 0000.0001)     ;
(PID.TID 0000.0001) phiEuler = /* Euler angle, rotation about original z-coordinate [rad] */
(PID.TID 0000.0001)                 0.000000000000000E+00
(PID.TID 0000.0001)     ;
(PID.TID 0000.0001) thetaEuler = /* Euler angle, rotation about new x-coordinate [rad] */
(PID.TID 0000.0001)                 0.000000000000000E+00
(PID.TID 0000.0001)     ;
(PID.TID 0000.0001) psiEuler = /* Euler angle, rotation about new z-coordinate [rad] */
(PID.TID 0000.0001)                 0.000000000000000E+00
(PID.TID 0000.0001)     ;
(PID.TID 0000.0001) dxF =  /* dxF(:,1,:,1) ( units: m ) */
(PID.TID 0000.0001)                 1.208164497427513E+05,      /* I =  1 */
(PID.TID 0000.0001)                 1.563893108133410E+05,      /* I =  2 */
(PID.TID 0000.0001)                 1.835578660170750E+05,      /* I =  3 */
(PID.TID 0000.0001)      . . .
(PID.TID 0000.0001)                 2.978502004615897E+05,      /* I = 46 */
(PID.TID 0000.0001)                 3.000967821328745E+05,      /* I = 47 */
(PID.TID 0000.0001)                 3.012191048042373E+05,      /* I = 48 */
(PID.TID 0000.0001)                 3.012191048042373E+05,      /* I = 49 */
(PID.TID 0000.0001)                 3.000967821328745E+05,      /* I = 50 */
(PID.TID 0000.0001)                 2.978502004615897E+05,      /* I = 51 */
(PID.TID 0000.0001)      . . .
(PID.TID 0000.0001)                 1.835578660170750E+05,      /* I = 94 */
(PID.TID 0000.0001)                 1.563893108133410E+05,      /* I = 95 */
(PID.TID 0000.0001)                 1.208164497427513E+05,      /* I = 96 */
(PID.TID 0000.0001)                 1.208164497427513E+05,      /* I = 97 */
(PID.TID 0000.0001)                 1.563893108133410E+05,      /* I = 98 */
(PID.TID 0000.0001)                 1.835578660170750E+05,      /* I = 99 */
(PID.TID 0000.0001)      . . .
(PID.TID 0000.0001)                 2.978502004615897E+05,      /* I =142 */
(PID.TID 0000.0001)                 3.000967821328745E+05,      /* I =143 */
(PID.TID 0000.0001)                 3.012191048042373E+05,      /* I =144 */
(PID.TID 0000.0001)                 3.012191048042373E+05,      /* I =145 */
(PID.TID 0000.0001)                 3.000967821328745E+05,      /* I =146 */
(PID.TID 0000.0001)                 2.978502004615897E+05,      /* I =147 */
(PID.TID 0000.0001)      . . .
(PID.TID 0000.0001)                 1.835578660170750E+05,      /* I =190 */
(PID.TID 0000.0001)                 1.563893108133410E+05,      /* I =191 */
(PID.TID 0000.0001)                 1.208164497427513E+05       /* I =192 */
(PID.TID 0000.0001)     ;
(PID.TID 0000.0001) dxF =  /* dxF(1,:,1,:) ( units: m ) */
(PID.TID 0000.0001)                 1.208164497427513E+05,      /* J =  1 */
(PID.TID 0000.0001)                 1.575313246967297E+05,      /* J =  2 */
(PID.TID 0000.0001)                 1.841567262292191E+05,      /* J =  3 */
(PID.TID 0000.0001)                 2.049540475644011E+05,      /* J =  4 */
(PID.TID 0000.0001)                 2.220840793516689E+05,      /* J =  5 */
(PID.TID 0000.0001)                 2.366191866372900E+05,      /* J =  6 */
(PID.TID 0000.0001)                 2.491464083009804E+05,      /* J =  7 */
(PID.TID 0000.0001)                 2.600103750884694E+05,      /* J =  8 */
(PID.TID 0000.0001)                 2.694220899589415E+05,      /* J =  9 */
(PID.TID 0000.0001)                 2.775134021642698E+05,      /* J = 10 */
(PID.TID 0000.0001)                 2.843669426491172E+05,      /* J = 11 */
(PID.TID 0000.0001)                 2.900338631125396E+05,      /* J = 12 */
(PID.TID 0000.0001)                 2.945449914488923E+05,      /* J = 13 */
(PID.TID 0000.0001)                 2.979181490241748E+05,      /* J = 14 */
(PID.TID 0000.0001)                 3.001630475443809E+05,      /* J = 15 */
(PID.TID 0000.0001)     2 @  3.012845239852109E+05,             /* J = 16: 17 */
(PID.TID 0000.0001)                 3.001630475443809E+05,      /* J = 18 */
(PID.TID 0000.0001)                 2.979181490241748E+05,      /* J = 19 */
(PID.TID 0000.0001)                 2.945449914488923E+05,      /* J = 20 */
(PID.TID 0000.0001)                 2.900338631125396E+05,      /* J = 21 */
(PID.TID 0000.0001)                 2.843669426491172E+05,      /* J = 22 */
(PID.TID 0000.0001)                 2.775134021642698E+05,      /* J = 23 */
(PID.TID 0000.0001)                 2.694220899589415E+05,      /* J = 24 */
(PID.TID 0000.0001)                 2.600103750884694E+05,      /* J = 25 */
(PID.TID 0000.0001)                 2.491464083009804E+05,      /* J = 26 */
(PID.TID 0000.0001)                 2.366191866372900E+05,      /* J = 27 */
(PID.TID 0000.0001)                 2.220840793516689E+05,      /* J = 28 */
(PID.TID 0000.0001)                 2.049540475644011E+05,      /* J = 29 */
(PID.TID 0000.0001)                 1.841567262292191E+05,      /* J = 30 */
(PID.TID 0000.0001)                 1.575313246967297E+05,      /* J = 31 */
(PID.TID 0000.0001)                 1.208164497427513E+05       /* J = 32 */
(PID.TID 0000.0001)     ;
(PID.TID 0000.0001) dyF =  /* dyF(:,1,:,1) ( units: m ) */
(PID.TID 0000.0001)                 1.208164497427513E+05,      /* I =  1 */
(PID.TID 0000.0001)                 1.575313246967297E+05,      /* I =  2 */
(PID.TID 0000.0001)                 1.841567262292191E+05,      /* I =  3 */
(PID.TID 0000.0001)      . . .
(PID.TID 0000.0001)                 2.979181490241748E+05,      /* I = 46 */
(PID.TID 0000.0001)                 3.001630475443809E+05,      /* I = 47 */
(PID.TID 0000.0001)                 3.012845239852109E+05,      /* I = 48 */
(PID.TID 0000.0001)                 3.012845239852109E+05,      /* I = 49 */
(PID.TID 0000.0001)                 3.001630475443809E+05,      /* I = 50 */
(PID.TID 0000.0001)                 2.979181490241748E+05,      /* I = 51 */
(PID.TID 0000.0001)      . . .
(PID.TID 0000.0001)                 1.841567262292191E+05,      /* I = 94 */
(PID.TID 0000.0001)                 1.575313246967297E+05,      /* I = 95 */
(PID.TID 0000.0001)                 1.208164497427513E+05,      /* I = 96 */
(PID.TID 0000.0001)                 1.208164497427513E+05,      /* I = 97 */
(PID.TID 0000.0001)                 1.575313246967297E+05,      /* I = 98 */
(PID.TID 0000.0001)                 1.841567262292191E+05,      /* I = 99 */
(PID.TID 0000.0001)      . . .
(PID.TID 0000.0001)                 2.979181490241748E+05,      /* I =142 */
(PID.TID 0000.0001)                 3.001630475443809E+05,      /* I =143 */
(PID.TID 0000.0001)                 3.012845239852109E+05,      /* I =144 */
(PID.TID 0000.0001)                 3.012845239852109E+05,      /* I =145 */
(PID.TID 0000.0001)                 3.001630475443809E+05,      /* I =146 */
(PID.TID 0000.0001)                 2.979181490241748E+05,      /* I =147 */
(PID.TID 0000.0001)      . . .
(PID.TID 0000.0001)                 1.841567262292191E+05,      /* I =190 */
(PID.TID 0000.0001)                 1.575313246967297E+05,      /* I =191 */
(PID.TID 0000.0001)                 1.208164497427513E+05       /* I =192 */
(PID.TID 0000.0001)     ;
(PID.TID 0000.0001) dyF =  /* dyF(1,:,1,:) ( units: m ) */
(PID.TID 0000.0001)                 1.208164497427513E+05,      /* J =  1 */
(PID.TID 0000.0001)                 1.563893108133410E+05,      /* J =  2 */
(PID.TID 0000.0001)                 1.835578660170750E+05,      /* J =  3 */
(PID.TID 0000.0001)                 2.045897643777963E+05,      /* J =  4 */
(PID.TID 0000.0001)                 2.218355892332067E+05,      /* J =  5 */
(PID.TID 0000.0001)                 2.364355578808568E+05,      /* J =  6 */
(PID.TID 0000.0001)                 2.490024063194764E+05,      /* J =  7 */
(PID.TID 0000.0001)                 2.598920493028891E+05,      /* J =  8 */
(PID.TID 0000.0001)                 2.693210711270105E+05,      /* J =  9 */
(PID.TID 0000.0001)                 2.774243477569765E+05,      /* J = 10 */
(PID.TID 0000.0001)                 2.842862732306662E+05,      /* J = 11 */
(PID.TID 0000.0001)                 2.899590841291803E+05,      /* J = 12 */
(PID.TID 0000.0001)                 2.944743020883619E+05,      /* J = 13 */
(PID.TID 0000.0001)                 2.978502004615897E+05,      /* J = 14 */
(PID.TID 0000.0001)                 3.000967821328745E+05,      /* J = 15 */
(PID.TID 0000.0001)     2 @  3.012191048042373E+05,             /* J = 16: 17 */
(PID.TID 0000.0001)                 3.000967821328745E+05,      /* J = 18 */
(PID.TID 0000.0001)                 2.978502004615897E+05,      /* J = 19 */
(PID.TID 0000.0001)                 2.944743020883619E+05,      /* J = 20 */
(PID.TID 0000.0001)                 2.899590841291803E+05,      /* J = 21 */
(PID.TID 0000.0001)                 2.842862732306662E+05,      /* J = 22 */
(PID.TID 0000.0001)                 2.774243477569765E+05,      /* J = 23 */
(PID.TID 0000.0001)                 2.693210711270105E+05,      /* J = 24 */
(PID.TID 0000.0001)                 2.598920493028891E+05,      /* J = 25 */
(PID.TID 0000.0001)                 2.490024063194764E+05,      /* J = 26 */
(PID.TID 0000.0001)                 2.364355578808568E+05,      /* J = 27 */
(PID.TID 0000.0001)                 2.218355892332067E+05,      /* J = 28 */
(PID.TID 0000.0001)                 2.045897643777963E+05,      /* J = 29 */
(PID.TID 0000.0001)                 1.835578660170750E+05,      /* J = 30 */
(PID.TID 0000.0001)                 1.563893108133410E+05,      /* J = 31 */
(PID.TID 0000.0001)                 1.208164497427513E+05       /* J = 32 */
(PID.TID 0000.0001)     ;
(PID.TID 0000.0001) dxG =  /* dxG(:,1,:,1) ( units: m ) */
(PID.TID 0000.0001)                 1.009837800876375E+05,      /* I =  1 */
(PID.TID 0000.0001)                 1.534505834328235E+05,      /* I =  2 */
(PID.TID 0000.0001)                 1.823321598768767E+05,      /* I =  3 */
(PID.TID 0000.0001)      . . .
(PID.TID 0000.0001)                 2.977867909041198E+05,      /* I = 46 */
(PID.TID 0000.0001)                 3.000380090330449E+05,      /* I = 47 */
(PID.TID 0000.0001)                 3.011625828701227E+05,      /* I = 48 */
(PID.TID 0000.0001)                 3.011625828701227E+05,      /* I = 49 */
(PID.TID 0000.0001)                 3.000380090330449E+05,      /* I = 50 */
(PID.TID 0000.0001)                 2.977867909041198E+05,      /* I = 51 */
(PID.TID 0000.0001)      . . .
(PID.TID 0000.0001)                 1.823321598768767E+05,      /* I = 94 */
(PID.TID 0000.0001)                 1.534505834328235E+05,      /* I = 95 */
(PID.TID 0000.0001)                 1.009837800876375E+05,      /* I = 96 */
(PID.TID 0000.0001)                 1.009837800876375E+05,      /* I = 97 */
(PID.TID 0000.0001)                 1.534505834328235E+05,      /* I = 98 */
(PID.TID 0000.0001)                 1.823321598768767E+05,      /* I = 99 */
(PID.TID 0000.0001)      . . .
(PID.TID 0000.0001)                 2.977867909041198E+05,      /* I =142 */
(PID.TID 0000.0001)                 3.000380090330449E+05,      /* I =143 */
(PID.TID 0000.0001)                 3.011625828701227E+05,      /* I =144 */
(PID.TID 0000.0001)                 3.011625828701227E+05,      /* I =145 */
(PID.TID 0000.0001)                 3.000380090330449E+05,      /* I =146 */
(PID.TID 0000.0001)                 2.977867909041198E+05,      /* I =147 */
(PID.TID 0000.0001)      . . .
(PID.TID 0000.0001)                 1.823321598768767E+05,      /* I =190 */
(PID.TID 0000.0001)                 1.534505834328235E+05,      /* I =191 */
(PID.TID 0000.0001)                 1.009837800876375E+05       /* I =192 */
(PID.TID 0000.0001)     ;
(PID.TID 0000.0001) dxG =  /* dxG(1,:,1,:) ( units: m ) */
(PID.TID 0000.0001)                 1.009837800876375E+05,      /* J =  1 */
(PID.TID 0000.0001)                 1.407552890250882E+05,      /* J =  2 */
(PID.TID 0000.0001)                 1.717812465326903E+05,      /* J =  3 */
(PID.TID 0000.0001)                 1.951119926638228E+05,      /* J =  4 */
(PID.TID 0000.0001)                 2.138946594980153E+05,      /* J =  5 */
(PID.TID 0000.0001)                 2.296317501049707E+05,      /* J =  6 */
(PID.TID 0000.0001)                 2.431082149525878E+05,      /* J =  7 */
(PID.TID 0000.0001)                 2.547707820809733E+05,      /* J =  8 */
(PID.TID 0000.0001)                 2.648880983885786E+05,      /* J =  9 */
(PID.TID 0000.0001)                 2.736267278452390E+05,      /* J = 10 */
(PID.TID 0000.0001)                 2.810911133312079E+05,      /* J = 11 */
(PID.TID 0000.0001)                 2.873464273902283E+05,      /* J = 12 */
(PID.TID 0000.0001)                 2.924325494873893E+05,      /* J = 13 */
(PID.TID 0000.0001)                 2.963730642862590E+05,      /* J = 14 */
(PID.TID 0000.0001)                 2.991812427774029E+05,      /* J = 15 */
(PID.TID 0000.0001)                 3.008640399781737E+05,      /* J = 16 */
(PID.TID 0000.0001)                 3.014246674483120E+05,      /* J = 17 */
(PID.TID 0000.0001)                 3.008640399781737E+05,      /* J = 18 */
(PID.TID 0000.0001)                 2.991812427774029E+05,      /* J = 19 */
(PID.TID 0000.0001)                 2.963730642862590E+05,      /* J = 20 */
(PID.TID 0000.0001)                 2.924325494873893E+05,      /* J = 21 */
(PID.TID 0000.0001)                 2.873464273902283E+05,      /* J = 22 */
(PID.TID 0000.0001)                 2.810911133312079E+05,      /* J = 23 */
(PID.TID 0000.0001)                 2.736267278452390E+05,      /* J = 24 */
(PID.TID 0000.0001)                 2.648880983885786E+05,      /* J = 25 */
(PID.TID 0000.0001)                 2.547707820809733E+05,      /* J = 26 */
(PID.TID 0000.0001)                 2.431082149525878E+05,      /* J = 27 */
(PID.TID 0000.0001)                 2.296317501049707E+05,      /* J = 28 */
(PID.TID 0000.0001)                 2.138946594980153E+05,      /* J = 29 */
(PID.TID 0000.0001)                 1.951119926638228E+05,      /* J = 30 */
(PID.TID 0000.0001)                 1.717812465326903E+05,      /* J = 31 */
(PID.TID 0000.0001)                 1.407552890250882E+05       /* J = 32 */
(PID.TID 0000.0001)     ;
(PID.TID 0000.0001) dyG =  /* dyG(:,1,:,1) ( units: m ) */
(PID.TID 0000.0001)                 1.009837800876375E+05,      /* I =  1 */
(PID.TID 0000.0001)                 1.407552890250882E+05,      /* I =  2 */
(PID.TID 0000.0001)                 1.717812465326903E+05,      /* I =  3 */
(PID.TID 0000.0001)      . . .
(PID.TID 0000.0001)                 2.963730642862590E+05,      /* I = 46 */
(PID.TID 0000.0001)                 2.991812427774029E+05,      /* I = 47 */
(PID.TID 0000.0001)                 3.008640399781737E+05,      /* I = 48 */
(PID.TID 0000.0001)                 3.014246674483120E+05,      /* I = 49 */
(PID.TID 0000.0001)                 3.008640399781737E+05,      /* I = 50 */
(PID.TID 0000.0001)                 2.991812427774029E+05,      /* I = 51 */
(PID.TID 0000.0001)      . . .
(PID.TID 0000.0001)                 1.951119926638228E+05,      /* I = 94 */
(PID.TID 0000.0001)                 1.717812465326903E+05,      /* I = 95 */
(PID.TID 0000.0001)                 1.407552890250882E+05,      /* I = 96 */
(PID.TID 0000.0001)                 1.009837800876375E+05,      /* I = 97 */
(PID.TID 0000.0001)                 1.407552890250882E+05,      /* I = 98 */
(PID.TID 0000.0001)                 1.717812465326903E+05,      /* I = 99 */
(PID.TID 0000.0001)      . . .
(PID.TID 0000.0001)                 2.963730642862590E+05,      /* I =142 */
(PID.TID 0000.0001)                 2.991812427774029E+05,      /* I =143 */
(PID.TID 0000.0001)                 3.008640399781737E+05,      /* I =144 */
(PID.TID 0000.0001)                 3.014246674483120E+05,      /* I =145 */
(PID.TID 0000.0001)                 3.008640399781737E+05,      /* I =146 */
(PID.TID 0000.0001)                 2.991812427774029E+05,      /* I =147 */
(PID.TID 0000.0001)      . . .
(PID.TID 0000.0001)                 1.951119926638228E+05,      /* I =190 */
(PID.TID 0000.0001)                 1.717812465326903E+05,      /* I =191 */
(PID.TID 0000.0001)                 1.407552890250882E+05       /* I =192 */
(PID.TID 0000.0001)     ;
(PID.TID 0000.0001) dyG =  /* dyG(1,:,1,:) ( units: m ) */
(PID.TID 0000.0001)                 1.009837800876375E+05,      /* J =  1 */
(PID.TID 0000.0001)                 1.534505834328235E+05,      /* J =  2 */
(PID.TID 0000.0001)                 1.823321598768767E+05,      /* J =  3 */
(PID.TID 0000.0001)                 2.038999045534966E+05,      /* J =  4 */
(PID.TID 0000.0001)                 2.213884732245322E+05,      /* J =  5 */
(PID.TID 0000.0001)                 2.361211699597717E+05,      /* J =  6 */
(PID.TID 0000.0001)                 2.487693460284765E+05,      /* J =  7 */
(PID.TID 0000.0001)                 2.597126963772656E+05,      /* J =  8 */
(PID.TID 0000.0001)                 2.691790288992463E+05,      /* J =  9 */
(PID.TID 0000.0001)                 2.773091043276745E+05,      /* J = 10 */
(PID.TID 0000.0001)                 2.841906470084194E+05,      /* J = 11 */
(PID.TID 0000.0001)                 2.898778860929699E+05,      /* J = 12 */
(PID.TID 0000.0001)                 2.944035815524881E+05,      /* J = 13 */
(PID.TID 0000.0001)                 2.977867909041198E+05,      /* J = 14 */
(PID.TID 0000.0001)                 3.000380090330449E+05,      /* J = 15 */
(PID.TID 0000.0001)     2 @  3.011625828701227E+05,             /* J = 16: 17 */
(PID.TID 0000.0001)                 3.000380090330449E+05,      /* J = 18 */
(PID.TID 0000.0001)                 2.977867909041198E+05,      /* J = 19 */
(PID.TID 0000.0001)                 2.944035815524881E+05,      /* J = 20 */
(PID.TID 0000.0001)                 2.898778860929699E+05,      /* J = 21 */
(PID.TID 0000.0001)                 2.841906470084194E+05,      /* J = 22 */
(PID.TID 0000.0001)                 2.773091043276745E+05,      /* J = 23 */
(PID.TID 0000.0001)                 2.691790288992463E+05,      /* J = 24 */
(PID.TID 0000.0001)                 2.597126963772656E+05,      /* J = 25 */
(PID.TID 0000.0001)                 2.487693460284765E+05,      /* J = 26 */
(PID.TID 0000.0001)                 2.361211699597717E+05,      /* J = 27 */
(PID.TID 0000.0001)                 2.213884732245322E+05,      /* J = 28 */
(PID.TID 0000.0001)                 2.038999045534966E+05,      /* J = 29 */
(PID.TID 0000.0001)                 1.823321598768767E+05,      /* J = 30 */
(PID.TID 0000.0001)                 1.534505834328235E+05,      /* J = 31 */
(PID.TID 0000.0001)                 1.009837800876375E+05       /* J = 32 */
(PID.TID 0000.0001)     ;
(PID.TID 0000.0001) dxC =  /* dxC(:,1,:,1) ( units: m ) */
(PID.TID 0000.0001)                 1.116647132697896E+05,      /* I =  1 */
(PID.TID 0000.0001)                 1.392485553682456E+05,      /* I =  2 */
(PID.TID 0000.0001)                 1.709683577475546E+05,      /* I =  3 */
(PID.TID 0000.0001)      . . .
(PID.TID 0000.0001)                 2.963038926108328E+05,      /* I = 46 */
(PID.TID 0000.0001)                 2.991142546940614E+05,      /* I = 47 */
(PID.TID 0000.0001)                 3.007982779774737E+05,      /* I = 48 */
(PID.TID 0000.0001)                 3.013593922621556E+05,      /* I = 49 */
(PID.TID 0000.0001)                 3.007982779774737E+05,      /* I = 50 */
(PID.TID 0000.0001)                 2.991142546940614E+05,      /* I = 51 */
(PID.TID 0000.0001)      . . .
(PID.TID 0000.0001)                 1.946528689404396E+05,      /* I = 94 */
(PID.TID 0000.0001)                 1.709683577475546E+05,      /* I = 95 */
(PID.TID 0000.0001)                 1.392485553682456E+05,      /* I = 96 */
(PID.TID 0000.0001)                 1.116647132697896E+05,      /* I = 97 */
(PID.TID 0000.0001)                 1.392485553682456E+05,      /* I = 98 */
(PID.TID 0000.0001)                 1.709683577475546E+05,      /* I = 99 */
(PID.TID 0000.0001)      . . .
(PID.TID 0000.0001)                 2.963038926108328E+05,      /* I =142 */
(PID.TID 0000.0001)                 2.991142546940614E+05,      /* I =143 */
(PID.TID 0000.0001)                 3.007982779774737E+05,      /* I =144 */
(PID.TID 0000.0001)                 3.013593922621556E+05,      /* I =145 */
(PID.TID 0000.0001)                 3.007982779774737E+05,      /* I =146 */
(PID.TID 0000.0001)                 2.991142546940614E+05,      /* I =147 */
(PID.TID 0000.0001)      . . .
(PID.TID 0000.0001)                 1.946528689404396E+05,      /* I =190 */
(PID.TID 0000.0001)                 1.709683577475546E+05,      /* I =191 */
(PID.TID 0000.0001)                 1.392485553682456E+05       /* I =192 */
(PID.TID 0000.0001)     ;
(PID.TID 0000.0001) dxC =  /* dxC(1,:,1,:) ( units: m ) */
(PID.TID 0000.0001)                 1.116647132697896E+05,      /* J =  1 */
(PID.TID 0000.0001)                 1.550106351852402E+05,      /* J =  2 */
(PID.TID 0000.0001)                 1.830023121140663E+05,      /* J =  3 */
(PID.TID 0000.0001)                 2.042856638159274E+05,      /* J =  4 */
(PID.TID 0000.0001)                 2.216456717009910E+05,      /* J =  5 */
(PID.TID 0000.0001)                 2.363090373286453E+05,      /* J =  6 */
(PID.TID 0000.0001)                 2.489156845159615E+05,      /* J =  7 */
(PID.TID 0000.0001)                 2.598324334431715E+05,      /* J =  8 */
(PID.TID 0000.0001)                 2.692809632393803E+05,      /* J =  9 */
(PID.TID 0000.0001)                 2.773987887547638E+05,      /* J = 10 */
(PID.TID 0000.0001)                 2.842717730650770E+05,      /* J = 11 */
(PID.TID 0000.0001)                 2.899530125269320E+05,      /* J = 12 */
(PID.TID 0000.0001)                 2.944745484118126E+05,      /* J = 13 */
(PID.TID 0000.0001)                 2.978549726442448E+05,      /* J = 14 */
(PID.TID 0000.0001)                 3.001044813731514E+05,      /* J = 15 */
(PID.TID 0000.0001)     2 @  3.012281967256333E+05,             /* J = 16: 17 */
(PID.TID 0000.0001)                 3.001044813731514E+05,      /* J = 18 */
(PID.TID 0000.0001)                 2.978549726442448E+05,      /* J = 19 */
(PID.TID 0000.0001)                 2.944745484118126E+05,      /* J = 20 */
(PID.TID 0000.0001)                 2.899530125269320E+05,      /* J = 21 */
(PID.TID 0000.0001)                 2.842717730650770E+05,      /* J = 22 */
(PID.TID 0000.0001)                 2.773987887547638E+05,      /* J = 23 */
(PID.TID 0000.0001)                 2.692809632393803E+05,      /* J = 24 */
(PID.TID 0000.0001)                 2.598324334431715E+05,      /* J = 25 */
(PID.TID 0000.0001)                 2.489156845159615E+05,      /* J = 26 */
(PID.TID 0000.0001)                 2.363090373286453E+05,      /* J = 27 */
(PID.TID 0000.0001)                 2.216456717009910E+05,      /* J = 28 */
(PID.TID 0000.0001)                 2.042856638159274E+05,      /* J = 29 */
(PID.TID 0000.0001)                 1.830023121140663E+05,      /* J = 30 */
(PID.TID 0000.0001)                 1.550106351852402E+05,      /* J = 31 */
(PID.TID 0000.0001)                 1.116647132697896E+05       /* J = 32 */
(PID.TID 0000.0001)     ;
(PID.TID 0000.0001) dyC =  /* dyC(:,1,:,1) ( units: m ) */
(PID.TID 0000.0001)                 1.116647132697896E+05,      /* I =  1 */
(PID.TID 0000.0001)                 1.550106351852402E+05,      /* I =  2 */
(PID.TID 0000.0001)                 1.830023121140663E+05,      /* I =  3 */
(PID.TID 0000.0001)      . . .
(PID.TID 0000.0001)                 2.978549726442448E+05,      /* I = 46 */
(PID.TID 0000.0001)                 3.001044813731514E+05,      /* I = 47 */
(PID.TID 0000.0001)                 3.012281967256333E+05,      /* I = 48 */
(PID.TID 0000.0001)                 3.012281967256333E+05,      /* I = 49 */
(PID.TID 0000.0001)                 3.001044813731514E+05,      /* I = 50 */
(PID.TID 0000.0001)                 2.978549726442448E+05,      /* I = 51 */
(PID.TID 0000.0001)      . . .
(PID.TID 0000.0001)                 1.830023121140663E+05,      /* I = 94 */
(PID.TID 0000.0001)                 1.550106351852402E+05,      /* I = 95 */
(PID.TID 0000.0001)                 1.116647132697896E+05,      /* I = 96 */
(PID.TID 0000.0001)                 1.116647132697896E+05,      /* I = 97 */
(PID.TID 0000.0001)                 1.550106351852402E+05,      /* I = 98 */
(PID.TID 0000.0001)                 1.830023121140663E+05,      /* I = 99 */
(PID.TID 0000.0001)      . . .
(PID.TID 0000.0001)                 2.978549726442448E+05,      /* I =142 */
(PID.TID 0000.0001)                 3.001044813731514E+05,      /* I =143 */
(PID.TID 0000.0001)                 3.012281967256333E+05,      /* I =144 */
(PID.TID 0000.0001)                 3.012281967256333E+05,      /* I =145 */
(PID.TID 0000.0001)                 3.001044813731514E+05,      /* I =146 */
(PID.TID 0000.0001)                 2.978549726442448E+05,      /* I =147 */
(PID.TID 0000.0001)      . . .
(PID.TID 0000.0001)                 1.830023121140663E+05,      /* I =190 */
(PID.TID 0000.0001)                 1.550106351852402E+05,      /* I =191 */
(PID.TID 0000.0001)                 1.116647132697896E+05       /* I =192 */
(PID.TID 0000.0001)     ;
(PID.TID 0000.0001) dyC =  /* dyC(1,:,1,:) ( units: m ) */
(PID.TID 0000.0001)                 1.116647132697896E+05,      /* J =  1 */
(PID.TID 0000.0001)                 1.392485553682456E+05,      /* J =  2 */
(PID.TID 0000.0001)                 1.709683577475546E+05,      /* J =  3 */
(PID.TID 0000.0001)                 1.946528689404396E+05,      /* J =  4 */
(PID.TID 0000.0001)                 2.135973104330621E+05,      /* J =  5 */
(PID.TID 0000.0001)                 2.294199397881751E+05,      /* J =  6 */
(PID.TID 0000.0001)                 2.429466556954395E+05,      /* J =  7 */
(PID.TID 0000.0001)                 2.546409301203426E+05,      /* J =  8 */
(PID.TID 0000.0001)                 2.647792433358776E+05,      /* J =  9 */
(PID.TID 0000.0001)                 2.735322281461693E+05,      /* J = 10 */
(PID.TID 0000.0001)                 2.810066194331567E+05,      /* J = 11 */
(PID.TID 0000.0001)                 2.872689646798818E+05,      /* J = 12 */
(PID.TID 0000.0001)                 2.923600076816042E+05,      /* J = 13 */
(PID.TID 0000.0001)                 2.963038926108328E+05,      /* J = 14 */
(PID.TID 0000.0001)                 2.991142546940614E+05,      /* J = 15 */
(PID.TID 0000.0001)                 3.007982779774737E+05,      /* J = 16 */
(PID.TID 0000.0001)                 3.013593922621556E+05,      /* J = 17 */
(PID.TID 0000.0001)                 3.007982779774737E+05,      /* J = 18 */
(PID.TID 0000.0001)                 2.991142546940614E+05,      /* J = 19 */
(PID.TID 0000.0001)                 2.963038926108328E+05,      /* J = 20 */
(PID.TID 0000.0001)                 2.923600076816042E+05,      /* J = 21 */
(PID.TID 0000.0001)                 2.872689646798818E+05,      /* J = 22 */
(PID.TID 0000.0001)                 2.810066194331567E+05,      /* J = 23 */
(PID.TID 0000.0001)                 2.735322281461693E+05,      /* J = 24 */
(PID.TID 0000.0001)                 2.647792433358776E+05,      /* J = 25 */
(PID.TID 0000.0001)                 2.546409301203426E+05,      /* J = 26 */
(PID.TID 0000.0001)                 2.429466556954395E+05,      /* J = 27 */
(PID.TID 0000.0001)                 2.294199397881751E+05,      /* J = 28 */
(PID.TID 0000.0001)                 2.135973104330621E+05,      /* J = 29 */
(PID.TID 0000.0001)                 1.946528689404396E+05,      /* J = 30 */
(PID.TID 0000.0001)                 1.709683577475546E+05,      /* J = 31 */
(PID.TID 0000.0001)                 1.392485553682456E+05       /* J = 32 */
(PID.TID 0000.0001)     ;
(PID.TID 0000.0001) dxV =  /* dxV(:,1,:,1) ( units: m ) */
(PID.TID 0000.0001)                 8.015229982404485E+04,      /* I =  1 */
(PID.TID 0000.0001)                 1.333130744932167E+05,      /* I =  2 */
(PID.TID 0000.0001)                 1.691744868125388E+05,      /* I =  3 */
(PID.TID 0000.0001)      . . .
(PID.TID 0000.0001)                 2.962371870845711E+05,      /* I = 46 */
(PID.TID 0000.0001)                 2.990534755671846E+05,      /* I = 47 */
(PID.TID 0000.0001)                 3.007409169495762E+05,      /* I = 48 */
(PID.TID 0000.0001)                 3.013031486921958E+05,      /* I = 49 */
(PID.TID 0000.0001)                 3.007409169495762E+05,      /* I = 50 */
(PID.TID 0000.0001)                 2.990534755671846E+05,      /* I = 51 */
(PID.TID 0000.0001)      . . .
(PID.TID 0000.0001)                 1.937548202845808E+05,      /* I = 94 */
(PID.TID 0000.0001)                 1.691744868125388E+05,      /* I = 95 */
(PID.TID 0000.0001)                 1.333130744932167E+05,      /* I = 96 */
(PID.TID 0000.0001)                 8.015229982404485E+04,      /* I = 97 */
(PID.TID 0000.0001)                 1.333130744932167E+05,      /* I = 98 */
(PID.TID 0000.0001)                 1.691744868125388E+05,      /* I = 99 */
(PID.TID 0000.0001)      . . .
(PID.TID 0000.0001)                 2.962371870845711E+05,      /* I =142 */
(PID.TID 0000.0001)                 2.990534755671846E+05,      /* I =143 */
(PID.TID 0000.0001)                 3.007409169495762E+05,      /* I =144 */
(PID.TID 0000.0001)                 3.013031486921958E+05,      /* I =145 */
(PID.TID 0000.0001)                 3.007409169495762E+05,      /* I =146 */
(PID.TID 0000.0001)                 2.990534755671846E+05,      /* I =147 */
(PID.TID 0000.0001)      . . .
(PID.TID 0000.0001)                 1.937548202845808E+05,      /* I =190 */
(PID.TID 0000.0001)                 1.691744868125388E+05,      /* I =191 */
(PID.TID 0000.0001)                 1.333130744932167E+05       /* I =192 */
(PID.TID 0000.0001)     ;
(PID.TID 0000.0001) dxV =  /* dxV(1,:,1,:) ( units: m ) */
(PID.TID 0000.0001)                 8.015229982404485E+04,      /* J =  1 */
(PID.TID 0000.0001)                 1.363686624762857E+05,      /* J =  2 */
(PID.TID 0000.0001)                 1.701434472301228E+05,      /* J =  3 */
(PID.TID 0000.0001)                 1.942512285132079E+05,      /* J =  4 */
(PID.TID 0000.0001)                 2.133596519724930E+05,      /* J =  5 */
(PID.TID 0000.0001)                 2.292657670664826E+05,      /* J =  6 */
(PID.TID 0000.0001)                 2.428421011082736E+05,      /* J =  7 */
(PID.TID 0000.0001)                 2.545689482926672E+05,      /* J =  8 */
(PID.TID 0000.0001)                 2.647301290465471E+05,      /* J =  9 */
(PID.TID 0000.0001)                 2.734999039571499E+05,      /* J = 10 */
(PID.TID 0000.0001)                 2.809869621221908E+05,      /* J = 11 */
(PID.TID 0000.0001)                 2.872589691757398E+05,      /* J = 12 */
(PID.TID 0000.0001)                 2.923573353492430E+05,      /* J = 13 */
(PID.TID 0000.0001)                 2.963066114700798E+05,      /* J = 14 */
(PID.TID 0000.0001)                 2.991206817612058E+05,      /* J = 15 */
(PID.TID 0000.0001)                 3.008068781660835E+05,      /* J = 16 */
(PID.TID 0000.0001)                 3.013686170437830E+05,      /* J = 17 */
(PID.TID 0000.0001)                 3.008068781660835E+05,      /* J = 18 */
(PID.TID 0000.0001)                 2.991206817612058E+05,      /* J = 19 */
(PID.TID 0000.0001)                 2.963066114700798E+05,      /* J = 20 */
(PID.TID 0000.0001)                 2.923573353492430E+05,      /* J = 21 */
(PID.TID 0000.0001)                 2.872589691757398E+05,      /* J = 22 */
(PID.TID 0000.0001)                 2.809869621221908E+05,      /* J = 23 */
(PID.TID 0000.0001)                 2.734999039571499E+05,      /* J = 24 */
(PID.TID 0000.0001)                 2.647301290465471E+05,      /* J = 25 */
(PID.TID 0000.0001)                 2.545689482926672E+05,      /* J = 26 */
(PID.TID 0000.0001)                 2.428421011082736E+05,      /* J = 27 */
(PID.TID 0000.0001)                 2.292657670664826E+05,      /* J = 28 */
(PID.TID 0000.0001)                 2.133596519724930E+05,      /* J = 29 */
(PID.TID 0000.0001)                 1.942512285132079E+05,      /* J = 30 */
(PID.TID 0000.0001)                 1.701434472301228E+05,      /* J = 31 */
(PID.TID 0000.0001)                 1.363686624762857E+05       /* J = 32 */
(PID.TID 0000.0001)     ;
(PID.TID 0000.0001) dyU =  /* dyU(:,1,:,1) ( units: m ) */
(PID.TID 0000.0001)                 8.015229982404485E+04,      /* I =  1 */
(PID.TID 0000.0001)                 1.363686624762857E+05,      /* I =  2 */
(PID.TID 0000.0001)                 1.701434472301228E+05,      /* I =  3 */
(PID.TID 0000.0001)      . . .
(PID.TID 0000.0001)                 2.963066114700798E+05,      /* I = 46 */
(PID.TID 0000.0001)                 2.991206817612058E+05,      /* I = 47 */
(PID.TID 0000.0001)                 3.008068781660835E+05,      /* I = 48 */
(PID.TID 0000.0001)                 3.013686170437830E+05,      /* I = 49 */
(PID.TID 0000.0001)                 3.008068781660835E+05,      /* I = 50 */
(PID.TID 0000.0001)                 2.991206817612058E+05,      /* I = 51 */
(PID.TID 0000.0001)      . . .
(PID.TID 0000.0001)                 1.942512285132079E+05,      /* I = 94 */
(PID.TID 0000.0001)                 1.701434472301228E+05,      /* I = 95 */
(PID.TID 0000.0001)                 1.363686624762857E+05,      /* I = 96 */
(PID.TID 0000.0001)                 8.015229982404485E+04,      /* I = 97 */
(PID.TID 0000.0001)                 1.363686624762857E+05,      /* I = 98 */
(PID.TID 0000.0001)                 1.701434472301228E+05,      /* I = 99 */
(PID.TID 0000.0001)      . . .
(PID.TID 0000.0001)                 2.963066114700798E+05,      /* I =142 */
(PID.TID 0000.0001)                 2.991206817612058E+05,      /* I =143 */
(PID.TID 0000.0001)                 3.008068781660835E+05,      /* I =144 */
(PID.TID 0000.0001)                 3.013686170437830E+05,      /* I =145 */
(PID.TID 0000.0001)                 3.008068781660835E+05,      /* I =146 */
(PID.TID 0000.0001)                 2.991206817612058E+05,      /* I =147 */
(PID.TID 0000.0001)      . . .
(PID.TID 0000.0001)                 1.942512285132079E+05,      /* I =190 */
(PID.TID 0000.0001)                 1.701434472301228E+05,      /* I =191 */
(PID.TID 0000.0001)                 1.363686624762857E+05       /* I =192 */
(PID.TID 0000.0001)     ;
(PID.TID 0000.0001) dyU =  /* dyU(1,:,1,:) ( units: m ) */
(PID.TID 0000.0001)                 8.015229982404485E+04,      /* J =  1 */
(PID.TID 0000.0001)                 1.333130744932167E+05,      /* J =  2 */
(PID.TID 0000.0001)                 1.691744868125388E+05,      /* J =  3 */
(PID.TID 0000.0001)                 1.937548202845808E+05,      /* J =  4 */
(PID.TID 0000.0001)                 2.130490056266232E+05,      /* J =  5 */
(PID.TID 0000.0001)                 2.290479919482170E+05,      /* J =  6 */
(PID.TID 0000.0001)                 2.426774358027187E+05,      /* J =  7 */
(PID.TID 0000.0001)                 2.544372984218245E+05,      /* J =  8 */
(PID.TID 0000.0001)                 2.646201463833409E+05,      /* J =  9 */
(PID.TID 0000.0001)                 2.734046499617742E+05,      /* J = 10 */
(PID.TID 0000.0001)                 2.809019351693248E+05,      /* J = 11 */
(PID.TID 0000.0001)                 2.871811105272531E+05,      /* J = 12 */
(PID.TID 0000.0001)                 2.922844849381013E+05,      /* J = 13 */
(PID.TID 0000.0001)                 2.962371870845711E+05,      /* J = 14 */
(PID.TID 0000.0001)                 2.990534755671846E+05,      /* J = 15 */
(PID.TID 0000.0001)                 3.007409169495762E+05,      /* J = 16 */
(PID.TID 0000.0001)                 3.013031486921958E+05,      /* J = 17 */
(PID.TID 0000.0001)                 3.007409169495762E+05,      /* J = 18 */
(PID.TID 0000.0001)                 2.990534755671846E+05,      /* J = 19 */
(PID.TID 0000.0001)                 2.962371870845711E+05,      /* J = 20 */
(PID.TID 0000.0001)                 2.922844849381013E+05,      /* J = 21 */
(PID.TID 0000.0001)                 2.871811105272531E+05,      /* J = 22 */
(PID.TID 0000.0001)                 2.809019351693248E+05,      /* J = 23 */
(PID.TID 0000.0001)                 2.734046499617742E+05,      /* J = 24 */
(PID.TID 0000.0001)                 2.646201463833409E+05,      /* J = 25 */
(PID.TID 0000.0001)                 2.544372984218245E+05,      /* J = 26 */
(PID.TID 0000.0001)                 2.426774358027187E+05,      /* J = 27 */
(PID.TID 0000.0001)                 2.290479919482170E+05,      /* J = 28 */
(PID.TID 0000.0001)                 2.130490056266232E+05,      /* J = 29 */
(PID.TID 0000.0001)                 1.937548202845808E+05,      /* J = 30 */
(PID.TID 0000.0001)                 1.691744868125388E+05,      /* J = 31 */
(PID.TID 0000.0001)                 1.333130744932167E+05       /* J = 32 */
(PID.TID 0000.0001)     ;
(PID.TID 0000.0001) rA  =  /* rA (:,1,:,1) ( units: m^2 ) */
(PID.TID 0000.0001)                 1.483193709397766E+10,      /* I =  1 */
(PID.TID 0000.0001)                 2.476789293979550E+10,      /* I =  2 */
(PID.TID 0000.0001)                 3.387112505847638E+10,      /* I =  3 */
(PID.TID 0000.0001)      . . .
(PID.TID 0000.0001)                 8.872885597085371E+10,      /* I = 46 */
(PID.TID 0000.0001)                 9.007102933895001E+10,      /* I = 47 */
(PID.TID 0000.0001)                 9.074531328717996E+10,      /* I = 48 */
(PID.TID 0000.0001)                 9.074531328717996E+10,      /* I = 49 */
(PID.TID 0000.0001)                 9.007102933895001E+10,      /* I = 50 */
(PID.TID 0000.0001)                 8.872885597085371E+10,      /* I = 51 */
(PID.TID 0000.0001)      . . .
(PID.TID 0000.0001)                 3.387112505847638E+10,      /* I = 94 */
(PID.TID 0000.0001)                 2.476789293979550E+10,      /* I = 95 */
(PID.TID 0000.0001)                 1.483193709397766E+10,      /* I = 96 */
(PID.TID 0000.0001)                 1.483193709397766E+10,      /* I = 97 */
(PID.TID 0000.0001)                 2.476789293979550E+10,      /* I = 98 */
(PID.TID 0000.0001)                 3.387112505847638E+10,      /* I = 99 */
(PID.TID 0000.0001)      . . .
(PID.TID 0000.0001)                 8.872885597085371E+10,      /* I =142 */
(PID.TID 0000.0001)                 9.007102933895001E+10,      /* I =143 */
(PID.TID 0000.0001)                 9.074531328717996E+10,      /* I =144 */
(PID.TID 0000.0001)                 9.074531328717996E+10,      /* I =145 */
(PID.TID 0000.0001)                 9.007102933895001E+10,      /* I =146 */
(PID.TID 0000.0001)                 8.872885597085371E+10,      /* I =147 */
(PID.TID 0000.0001)      . . .
(PID.TID 0000.0001)                 3.387112505847638E+10,      /* I =190 */
(PID.TID 0000.0001)                 2.476789293979550E+10,      /* I =191 */
(PID.TID 0000.0001)                 1.483193709397766E+10       /* I =192 */
(PID.TID 0000.0001)     ;
(PID.TID 0000.0001) rA  =  /* rA (1,:,1,:) ( units: m^2 ) */
(PID.TID 0000.0001)                 1.483193709397766E+10,      /* J =  1 */
(PID.TID 0000.0001)                 2.476789293979550E+10,      /* J =  2 */
(PID.TID 0000.0001)                 3.387112505847638E+10,      /* J =  3 */
(PID.TID 0000.0001)                 4.197302689155780E+10,      /* J =  4 */
(PID.TID 0000.0001)                 4.929378289714742E+10,      /* J =  5 */
(PID.TID 0000.0001)                 5.596406977246146E+10,      /* J =  6 */
(PID.TID 0000.0001)                 6.205077247510580E+10,      /* J =  7 */
(PID.TID 0000.0001)                 6.758266883915286E+10,      /* J =  8 */
(PID.TID 0000.0001)                 7.256536165779025E+10,      /* J =  9 */
(PID.TID 0000.0001)                 7.699024655653084E+10,      /* J = 10 */
(PID.TID 0000.0001)                 8.084038186855891E+10,      /* J = 11 */
(PID.TID 0000.0001)                 8.409466866853806E+10,      /* J = 12 */
(PID.TID 0000.0001)                 8.673102186020337E+10,      /* J = 13 */
(PID.TID 0000.0001)                 8.872885597085371E+10,      /* J = 14 */
(PID.TID 0000.0001)                 9.007102933895001E+10,      /* J = 15 */
(PID.TID 0000.0001)     2 @  9.074531328717996E+10,             /* J = 16: 17 */
(PID.TID 0000.0001)                 9.007102933895001E+10,      /* J = 18 */
(PID.TID 0000.0001)                 8.872885597085371E+10,      /* J = 19 */
(PID.TID 0000.0001)                 8.673102186020337E+10,      /* J = 20 */
(PID.TID 0000.0001)                 8.409466866853806E+10,      /* J = 21 */
(PID.TID 0000.0001)                 8.084038186855891E+10,      /* J = 22 */
(PID.TID 0000.0001)                 7.699024655653084E+10,      /* J = 23 */
(PID.TID 0000.0001)                 7.256536165779025E+10,      /* J = 24 */
(PID.TID 0000.0001)                 6.758266883915286E+10,      /* J = 25 */
(PID.TID 0000.0001)                 6.205077247510580E+10,      /* J = 26 */
(PID.TID 0000.0001)                 5.596406977246146E+10,      /* J = 27 */
(PID.TID 0000.0001)                 4.929378289714742E+10,      /* J = 28 */
(PID.TID 0000.0001)                 4.197302689155780E+10,      /* J = 29 */
(PID.TID 0000.0001)                 3.387112505847638E+10,      /* J = 30 */
(PID.TID 0000.0001)                 2.476789293979550E+10,      /* J = 31 */
(PID.TID 0000.0001)                 1.483193709397766E+10       /* J = 32 */
(PID.TID 0000.0001)     ;
(PID.TID 0000.0001) rAw =  /* rAw(:,1,:,1) ( units: m^2 ) */
(PID.TID 0000.0001)                 1.241518061276850E+10,      /* I =  1 */
(PID.TID 0000.0001)                 1.979784032141267E+10,      /* I =  2 */
(PID.TID 0000.0001)                 2.946081672068642E+10,      /* I =  3 */
(PID.TID 0000.0001)      . . .
(PID.TID 0000.0001)                 8.781092525894122E+10,      /* I = 46 */
(PID.TID 0000.0001)                 8.948279401613618E+10,      /* I = 47 */
(PID.TID 0000.0001)                 9.049219610247414E+10,      /* I = 48 */
(PID.TID 0000.0001)                 9.082976249073500E+10,      /* I = 49 */
(PID.TID 0000.0001)                 9.049219610247414E+10,      /* I = 50 */
(PID.TID 0000.0001)                 8.948279401613618E+10,      /* I = 51 */
(PID.TID 0000.0001)      . . .
(PID.TID 0000.0001)                 3.803135270871054E+10,      /* I = 94 */
(PID.TID 0000.0001)                 2.946081672068642E+10,      /* I = 95 */
(PID.TID 0000.0001)                 1.979784032141267E+10,      /* I = 96 */
(PID.TID 0000.0001)                 1.241518061276850E+10,      /* I = 97 */
(PID.TID 0000.0001)                 1.979784032141267E+10,      /* I = 98 */
(PID.TID 0000.0001)                 2.946081672068642E+10,      /* I = 99 */
(PID.TID 0000.0001)      . . .
(PID.TID 0000.0001)                 8.781092525894122E+10,      /* I =142 */
(PID.TID 0000.0001)                 8.948279401613618E+10,      /* I =143 */
(PID.TID 0000.0001)                 9.049219610247414E+10,      /* I =144 */
(PID.TID 0000.0001)                 9.082976249073500E+10,      /* I =145 */
(PID.TID 0000.0001)                 9.049219610247414E+10,      /* I =146 */
(PID.TID 0000.0001)                 8.948279401613618E+10,      /* I =147 */
(PID.TID 0000.0001)      . . .
(PID.TID 0000.0001)                 3.803135270871054E+10,      /* I =190 */
(PID.TID 0000.0001)                 2.946081672068642E+10,      /* I =191 */
(PID.TID 0000.0001)                 1.979784032141267E+10       /* I =192 */
(PID.TID 0000.0001)     ;
(PID.TID 0000.0001) rAw =  /* rAw(1,:,1,:) ( units: m^2 ) */
(PID.TID 0000.0001)                 1.241518061276850E+10,      /* J =  1 */
(PID.TID 0000.0001)                 2.393793937228070E+10,      /* J =  2 */
(PID.TID 0000.0001)                 3.343760957395816E+10,      /* J =  3 */
(PID.TID 0000.0001)                 4.169613171585213E+10,      /* J =  4 */
(PID.TID 0000.0001)                 4.909775059622826E+10,      /* J =  5 */
(PID.TID 0000.0001)                 5.581661164420262E+10,      /* J =  6 */
(PID.TID 0000.0001)                 6.193540432691364E+10,      /* J =  7 */
(PID.TID 0000.0001)                 6.748988037450198E+10,      /* J =  8 */
(PID.TID 0000.0001)                 7.248914191201054E+10,      /* J =  9 */
(PID.TID 0000.0001)                 7.692650633841550E+10,      /* J = 10 */
(PID.TID 0000.0001)                 8.078615851706480E+10,      /* J = 11 */
(PID.TID 0000.0001)                 8.404769146494269E+10,      /* J = 12 */
(PID.TID 0000.0001)                 8.668945829241028E+10,      /* J = 13 */
(PID.TID 0000.0001)                 8.869115459489229E+10,      /* J = 14 */
(PID.TID 0000.0001)                 9.003581649199794E+10,      /* J = 15 */
(PID.TID 0000.0001)     2 @  9.071132029984613E+10,             /* J = 16: 17 */
(PID.TID 0000.0001)                 9.003581649199794E+10,      /* J = 18 */
(PID.TID 0000.0001)                 8.869115459489229E+10,      /* J = 19 */
(PID.TID 0000.0001)                 8.668945829241028E+10,      /* J = 20 */
(PID.TID 0000.0001)                 8.404769146494269E+10,      /* J = 21 */
(PID.TID 0000.0001)                 8.078615851706480E+10,      /* J = 22 */
(PID.TID 0000.0001)                 7.692650633841550E+10,      /* J = 23 */
(PID.TID 0000.0001)                 7.248914191201054E+10,      /* J = 24 */
(PID.TID 0000.0001)                 6.748988037450198E+10,      /* J = 25 */
(PID.TID 0000.0001)                 6.193540432691364E+10,      /* J = 26 */
(PID.TID 0000.0001)                 5.581661164420262E+10,      /* J = 27 */
(PID.TID 0000.0001)                 4.909775059622826E+10,      /* J = 28 */
(PID.TID 0000.0001)                 4.169613171585213E+10,      /* J = 29 */
(PID.TID 0000.0001)                 3.343760957395816E+10,      /* J = 30 */
(PID.TID 0000.0001)                 2.393793937228070E+10,      /* J = 31 */
(PID.TID 0000.0001)                 1.241518061276850E+10       /* J = 32 */
(PID.TID 0000.0001)     ;
(PID.TID 0000.0001) rAs =  /* rAs(:,1,:,1) ( units: m^2 ) */
(PID.TID 0000.0001)                 1.241518061276850E+10,      /* I =  1 */
(PID.TID 0000.0001)                 2.393793937228070E+10,      /* I =  2 */
(PID.TID 0000.0001)                 3.343760957395816E+10,      /* I =  3 */
(PID.TID 0000.0001)      . . .
(PID.TID 0000.0001)                 8.869115459489229E+10,      /* I = 46 */
(PID.TID 0000.0001)                 9.003581649199794E+10,      /* I = 47 */
(PID.TID 0000.0001)                 9.071132029984613E+10,      /* I = 48 */
(PID.TID 0000.0001)                 9.071132029984613E+10,      /* I = 49 */
(PID.TID 0000.0001)                 9.003581649199794E+10,      /* I = 50 */
(PID.TID 0000.0001)                 8.869115459489229E+10,      /* I = 51 */
(PID.TID 0000.0001)      . . .
(PID.TID 0000.0001)                 3.343760957395816E+10,      /* I = 94 */
(PID.TID 0000.0001)                 2.393793937228070E+10,      /* I = 95 */
(PID.TID 0000.0001)                 1.241518061276850E+10,      /* I = 96 */
(PID.TID 0000.0001)                 1.241518061276850E+10,      /* I = 97 */
(PID.TID 0000.0001)                 2.393793937228070E+10,      /* I = 98 */
(PID.TID 0000.0001)                 3.343760957395816E+10,      /* I = 99 */
(PID.TID 0000.0001)      . . .
(PID.TID 0000.0001)                 8.869115459489229E+10,      /* I =142 */
(PID.TID 0000.0001)                 9.003581649199794E+10,      /* I =143 */
(PID.TID 0000.0001)                 9.071132029984613E+10,      /* I =144 */
(PID.TID 0000.0001)                 9.071132029984613E+10,      /* I =145 */
(PID.TID 0000.0001)                 9.003581649199794E+10,      /* I =146 */
(PID.TID 0000.0001)                 8.869115459489229E+10,      /* I =147 */
(PID.TID 0000.0001)      . . .
(PID.TID 0000.0001)                 3.343760957395816E+10,      /* I =190 */
(PID.TID 0000.0001)                 2.393793937228070E+10,      /* I =191 */
(PID.TID 0000.0001)                 1.241518061276850E+10       /* I =192 */
(PID.TID 0000.0001)     ;
(PID.TID 0000.0001) rAs =  /* rAs(1,:,1,:) ( units: m^2 ) */
(PID.TID 0000.0001)                 1.241518061276850E+10,      /* J =  1 */
(PID.TID 0000.0001)                 1.979784032141267E+10,      /* J =  2 */
(PID.TID 0000.0001)                 2.946081672068642E+10,      /* J =  3 */
(PID.TID 0000.0001)                 3.803135270871054E+10,      /* J =  4 */
(PID.TID 0000.0001)                 4.572098922333179E+10,      /* J =  5 */
(PID.TID 0000.0001)                 5.270492648776427E+10,      /* J =  6 */
(PID.TID 0000.0001)                 5.907789136457927E+10,      /* J =  7 */
(PID.TID 0000.0001)                 6.488530324370350E+10,      /* J =  8 */
(PID.TID 0000.0001)                 7.014294990279657E+10,      /* J =  9 */
(PID.TID 0000.0001)                 7.484844860455585E+10,      /* J = 10 */
(PID.TID 0000.0001)                 7.898842019812308E+10,      /* J = 11 */
(PID.TID 0000.0001)                 8.254339553226024E+10,      /* J = 12 */
(PID.TID 0000.0001)                 8.549143393905247E+10,      /* J = 13 */
(PID.TID 0000.0001)                 8.781092525894122E+10,      /* J = 14 */
(PID.TID 0000.0001)                 8.948279401613618E+10,      /* J = 15 */
(PID.TID 0000.0001)                 9.049219610247414E+10,      /* J = 16 */
(PID.TID 0000.0001)                 9.082976249073500E+10,      /* J = 17 */
(PID.TID 0000.0001)                 9.049219610247414E+10,      /* J = 18 */
(PID.TID 0000.0001)                 8.948279401613618E+10,      /* J = 19 */
(PID.TID 0000.0001)                 8.781092525894122E+10,      /* J = 20 */
(PID.TID 0000.0001)                 8.549143393905247E+10,      /* J = 21 */
(PID.TID 0000.0001)                 8.254339553226024E+10,      /* J = 22 */
(PID.TID 0000.0001)                 7.898842019812308E+10,      /* J = 23 */
(PID.TID 0000.0001)                 7.484844860455585E+10,      /* J = 24 */
(PID.TID 0000.0001)                 7.014294990279657E+10,      /* J = 25 */
(PID.TID 0000.0001)                 6.488530324370350E+10,      /* J = 26 */
(PID.TID 0000.0001)                 5.907789136457927E+10,      /* J = 27 */
(PID.TID 0000.0001)                 5.270492648776427E+10,      /* J = 28 */
(PID.TID 0000.0001)                 4.572098922333179E+10,      /* J = 29 */
(PID.TID 0000.0001)                 3.803135270871054E+10,      /* J = 30 */
(PID.TID 0000.0001)                 2.946081672068642E+10,      /* J = 31 */
(PID.TID 0000.0001)                 1.979784032141267E+10       /* J = 32 */
(PID.TID 0000.0001)     ;
(PID.TID 0000.0001) globalArea = /* Integrated horizontal Area (m^2) */
(PID.TID 0000.0001)                 5.099043637807786E+14
(PID.TID 0000.0001)     ;
(PID.TID 0000.0001) hasWetCSCorners = /* Domain contains CS corners (True/False) */
(PID.TID 0000.0001)                   T
(PID.TID 0000.0001)     ;
(PID.TID 0000.0001) // =======================================================
(PID.TID 0000.0001) // End of Model config. summary
(PID.TID 0000.0001) // =======================================================
(PID.TID 0000.0001) 
(PID.TID 0000.0001) == Packages configuration : Check & print summary ==
(PID.TID 0000.0001) 
(PID.TID 0000.0001) GAD_CHECK: #define ALLOW_GENERIC_ADVDIFF
(PID.TID 0000.0001) // =======================================================
(PID.TID 0000.0001) // Check Model config. (CONFIG_CHECK):
(PID.TID 0000.0001) // CONFIG_CHECK : Normal End
(PID.TID 0000.0001) // =======================================================
(PID.TID 0000.0001) 
(PID.TID 0000.0001)  MDS_READ_FIELD: opening global file: S.init
(PID.TID 0000.0001) Start initial hydrostatic pressure computation
(PID.TID 0000.0001) Pressure is predetermined for buoyancyRelation ATMOSPHERIC
(PID.TID 0000.0001) 
(PID.TID 0000.0001)  write diagnostics summary to file ioUnit:      6
Iter.Nb:         0 ; Time(s):  0.0000000000000E+00
------------------------------------------------------------------------
2D/3D diagnostics: Number of lists:     1
------------------------------------------------------------------------
listId=    1 ; file name: s_Diag
 nFlds, nActive,       freq     &     phase        , nLev               
    2  |    2  |     21600.000000         0.000000 |   1
 levels:   1
 diag# | name   |   ipt  |  iMate | kLev|   count |   mate.C|           
    27 |SALT    |      1 |      0 |   1 |       0 |
    33 |SALTSQ  |      2 |      0 |   1 |       0 |
------------------------------------------------------------------------
Global & Regional Statistics diagnostics: Number of lists:     1
------------------------------------------------------------------------
listId=   1 ; file name: dynStDiag
 nFlds, nActive,       freq     &     phase        |                    
    4  |    4  |    -21600.000000         0.000000 |
 Regions:   0
 diag# | name   |   ipt  |  iMate |    Volume   |   mate-Vol. |         
    23 |ETAN    |      1 |      0 | 0.00000E+00 |
   145 |momKE   |      2 |      0 | 0.00000E+00 |
    27 |SALT    |      3 |      0 | 0.00000E+00 |
    33 |SALTSQ  |      4 |      0 | 0.00000E+00 |
------------------------------------------------------------------------
(PID.TID 0000.0001) // =======================================================
(PID.TID 0000.0001) // Model current state
(PID.TID 0000.0001) // =======================================================
(PID.TID 0000.0001) 
(PID.TID 0000.0001) // =======================================================
(PID.TID 0000.0001) // Begin MONITOR dynamic field statistics
(PID.TID 0000.0001) // =======================================================
(PID.TID 0000.0001) %MON time_tsnumber                =                     0
(PID.TID 0000.0001) %MON time_secondsf                =   0.0000000000000E+00
(PID.TID 0000.0001) %MON dynstat_eta_max              =  -1.0837810708482E+01
(PID.TID 0000.0001) %MON dynstat_eta_min              =  -1.9347765553844E+04
(PID.TID 0000.0001) %MON dynstat_eta_mean             =  -6.4575937802318E+03
(PID.TID 0000.0001) %MON dynstat_eta_sd               =   5.7754111494237E+03
(PID.TID 0000.0001) %MON dynstat_eta_del2             =   8.4280282815450E-01
(PID.TID 0000.0001) %MON dynstat_uvel_max             =   3.8588909729170E+01
(PID.TID 0000.0001) %MON dynstat_uvel_min             =  -2.6640751857540E+01
(PID.TID 0000.0001) %MON dynstat_uvel_mean            =   1.1767582051515E+01
(PID.TID 0000.0001) %MON dynstat_uvel_sd              =   1.8925013763619E+01
(PID.TID 0000.0001) %MON dynstat_uvel_del2            =   1.4480666041848E-02
(PID.TID 0000.0001) %MON dynstat_vvel_max             =   3.8588909729170E+01
(PID.TID 0000.0001) %MON dynstat_vvel_min             =  -2.6640751857540E+01
(PID.TID 0000.0001) %MON dynstat_vvel_mean            =   1.1767582051515E+01
(PID.TID 0000.0001) %MON dynstat_vvel_sd              =   1.8925013763619E+01
(PID.TID 0000.0001) %MON dynstat_vvel_del2            =   1.4480666041848E-02
(PID.TID 0000.0001) %MON dynstat_wvel_max             =   5.5841826542356E-15
(PID.TID 0000.0001) %MON dynstat_wvel_min             =  -5.5841826542356E-15
(PID.TID 0000.0001) %MON dynstat_wvel_mean            =  -3.3515782495534E-18
(PID.TID 0000.0001) %MON dynstat_wvel_sd              =   1.5161239831516E-15
(PID.TID 0000.0001) %MON dynstat_wvel_del2            =   7.8771405725072E-17
(PID.TID 0000.0001) %MON dynstat_theta_max            =   3.0000000000000E+02
(PID.TID 0000.0001) %MON dynstat_theta_min            =   3.0000000000000E+02
(PID.TID 0000.0001) %MON dynstat_theta_mean           =   3.0000000000000E+02
(PID.TID 0000.0001) %MON dynstat_theta_sd             =   4.5474735088646E-13
(PID.TID 0000.0001) %MON dynstat_theta_del2           =   0.0000000000000E+00
(PID.TID 0000.0001) %MON dynstat_salt_max             =   9.6964258541370E-01
(PID.TID 0000.0001) %MON dynstat_salt_min             =   0.0000000000000E+00
(PID.TID 0000.0001) %MON dynstat_salt_mean            =   6.6909333292948E-03
(PID.TID 0000.0001) %MON dynstat_salt_sd              =   6.1908067065611E-02
(PID.TID 0000.0001) %MON dynstat_salt_del2            =   1.5501836877532E-04
(PID.TID 0000.0001) %MON advcfl_uvel_max              =   3.4060671851487E-01
(PID.TID 0000.0001) %MON advcfl_vvel_max              =   3.4060671851487E-01
(PID.TID 0000.0001) %MON advcfl_wvel_max              =   1.3402038370166E-16
(PID.TID 0000.0001) %MON advcfl_W_hf_max              =   0.0000000000000E+00
(PID.TID 0000.0001) %MON am_eta_mean                  =  -7.7795715773254E+11
(PID.TID 0000.0001) %MON am_uZo_mean                  =   1.6706623982924E+12
(PID.TID 0000.0001) %MON am_tot_mean                  =   8.9270524055991E+11
(PID.TID 0000.0001) %MON pe_b_mean                    =   3.7527945687688E+02
(PID.TID 0000.0001) %MON ke_max                       =   7.4488928391139E+02
(PID.TID 0000.0001) %MON ke_mean                      =   4.9660671715657E+02
(PID.TID 0000.0001) %MON ke_vol                       =   5.0990436378078E+19
(PID.TID 0000.0001) %MON vort_r_min                   =  -1.2114963574298E-05
(PID.TID 0000.0001) %MON vort_r_max                   =   1.2114963574298E-05
(PID.TID 0000.0001) %MON vort_a_mean                  =   0.0000000000000E+00
(PID.TID 0000.0001) %MON vort_a_sd                    =   9.0967808939554E-05
(PID.TID 0000.0001) %MON vort_p_mean                  =   0.0000000000000E+00
(PID.TID 0000.0001) %MON vort_p_sd                    =   9.0967808939554E-05
(PID.TID 0000.0001) %MON surfExpan_theta_mean         =  -1.0054734748660E-15
(PID.TID 0000.0001) %MON surfExpan_salt_mean          =  -1.5806979624481E-35
(PID.TID 0000.0001) %MON surfExpan_Heat_mean          =  -8.4416385598806E-14
(PID.TID 0000.0001) %MON En_Budget_T2PE_mean          =   0.0000000000000E+00
(PID.TID 0000.0001) // =======================================================
(PID.TID 0000.0001) // End MONITOR dynamic field statistics
(PID.TID 0000.0001) // =======================================================
(PID.TID 0000.0001) SOLVE_FOR_PRESSURE: putPmEinXvector =    F
 cg2d: Sum(rhs),rhsMax =   1.60256532282297E+03  1.41158551406643E+04
(PID.TID 0000.0001)      cg2d_init_res =   7.67615014588565E-02
(PID.TID 0000.0001)      cg2d_iters(min,last) =      -1      26
(PID.TID 0000.0001)      cg2d_last_res =   4.50156218542350E-13
(PID.TID 0000.0001) // =======================================================
(PID.TID 0000.0001) // Begin MONITOR dynamic field statistics
(PID.TID 0000.0001) // =======================================================
(PID.TID 0000.0001) %MON time_tsnumber                =                     1
(PID.TID 0000.0001) %MON time_secondsf                =   1.2000000000000E+03
(PID.TID 0000.0001) %MON dynstat_eta_max              =  -1.5947361166253E+01
(PID.TID 0000.0001) %MON dynstat_eta_min              =  -1.9337099268440E+04
(PID.TID 0000.0001) %MON dynstat_eta_mean             =  -6.4575937802318E+03
(PID.TID 0000.0001) %MON dynstat_eta_sd               =   5.7707250781807E+03
(PID.TID 0000.0001) %MON dynstat_eta_del2             =   8.5710161434447E-01
(PID.TID 0000.0001) %MON dynstat_uvel_max             =   3.8588909729170E+01
(PID.TID 0000.0001) %MON dynstat_uvel_min             =  -2.6659582164863E+01
(PID.TID 0000.0001) %MON dynstat_uvel_mean            =   1.1767582051515E+01
(PID.TID 0000.0001) %MON dynstat_uvel_sd              =   1.8925150208566E+01
(PID.TID 0000.0001) %MON dynstat_uvel_del2            =   1.4465539590071E-02
(PID.TID 0000.0001) %MON dynstat_vvel_max             =   3.8588909729170E+01
(PID.TID 0000.0001) %MON dynstat_vvel_min             =  -2.6659582164863E+01
(PID.TID 0000.0001) %MON dynstat_vvel_mean            =   1.1767582051515E+01
(PID.TID 0000.0001) %MON dynstat_vvel_sd              =   1.8925150208566E+01
(PID.TID 0000.0001) %MON dynstat_vvel_del2            =   1.4465539590071E-02
(PID.TID 0000.0001) %MON dynstat_wvel_max             =   4.9482309333589E-02
(PID.TID 0000.0001) %MON dynstat_wvel_min             =  -3.2089443657102E-02
(PID.TID 0000.0001) %MON dynstat_wvel_mean            =  -2.3533824874578E-18
(PID.TID 0000.0001) %MON dynstat_wvel_sd              =   4.0536759604366E-03
(PID.TID 0000.0001) %MON dynstat_wvel_del2            =   1.1847376801593E-04
(PID.TID 0000.0001) %MON dynstat_theta_max            =   3.0000000000000E+02
(PID.TID 0000.0001) %MON dynstat_theta_min            =   3.0000000000000E+02
(PID.TID 0000.0001) %MON dynstat_theta_mean           =   3.0000000000000E+02
(PID.TID 0000.0001) %MON dynstat_theta_sd             =   4.5474735088646E-13
(PID.TID 0000.0001) %MON dynstat_theta_del2           =   0.0000000000000E+00
(PID.TID 0000.0001) %MON dynstat_salt_max             =   9.7589235569134E-01
(PID.TID 0000.0001) %MON dynstat_salt_min             =  -3.2231620263484E-03
(PID.TID 0000.0001) %MON dynstat_salt_mean            =   6.6909333292948E-03
(PID.TID 0000.0001) %MON dynstat_salt_sd              =   6.1938184614217E-02
(PID.TID 0000.0001) %MON dynstat_salt_del2            =   1.5521314447765E-04
(PID.TID 0000.0001) %MON advcfl_uvel_max              =   3.4060671851487E-01
(PID.TID 0000.0001) %MON advcfl_vvel_max              =   3.4060671851487E-01
(PID.TID 0000.0001) %MON advcfl_wvel_max              =   1.1875754240061E-03
(PID.TID 0000.0001) %MON advcfl_W_hf_max              =   0.0000000000000E+00
(PID.TID 0000.0001) %MON am_eta_mean                  =  -7.7837665729599E+11
(PID.TID 0000.0001) %MON am_uZo_mean                  =   1.6706623982924E+12
(PID.TID 0000.0001) %MON am_tot_mean                  =   8.9228574099645E+11
(PID.TID 0000.0001) %MON pe_b_mean                    =   3.7500892679216E+02
(PID.TID 0000.0001) %MON ke_max                       =   7.4488942018430E+02
(PID.TID 0000.0001) %MON ke_mean                      =   4.9661188090157E+02
(PID.TID 0000.0001) %MON ke_vol                       =   5.0990436378078E+19
(PID.TID 0000.0001) %MON vort_r_min                   =  -1.2114963574298E-05
(PID.TID 0000.0001) %MON vort_r_max                   =   1.2114963574298E-05
(PID.TID 0000.0001) %MON vort_a_mean                  =   0.0000000000000E+00
(PID.TID 0000.0001) %MON vort_a_sd                    =   9.0967809734440E-05
(PID.TID 0000.0001) %MON vort_p_mean                  =   0.0000000000000E+00
(PID.TID 0000.0001) %MON vort_p_sd                    =   9.0967809734440E-05
(PID.TID 0000.0001) %MON surfExpan_theta_mean         =  -5.5157402049792E-16
(PID.TID 0000.0001) %MON surfExpan_salt_mean          =   1.4401755326677E-05
(PID.TID 0000.0001) %MON surfExpan_Heat_mean          =  -9.5958511211328E-14
(PID.TID 0000.0001) %MON En_Budget_T2PE_mean          =   0.0000000000000E+00
(PID.TID 0000.0001) // =======================================================
(PID.TID 0000.0001) // End MONITOR dynamic field statistics
(PID.TID 0000.0001) // =======================================================
 Compute Stats, Diag. #     23  ETAN      vol(   0 ): 5.099E+14  Parms: SM      M1      
 Compute Stats, Diag. #    145  momKE     vol(   0 ): 5.099E+19  Parms: SMR     MR      
 Compute Stats, Diag. #     27  SALT      vol(   0 ): 5.099E+19  Parms: SMR     MR      
 Compute Stats, Diag. #     33  SALTSQ    vol(   0 ): 5.099E+19  Parms: SMRP    MR      
 cg2d: Sum(rhs),rhsMax =   1.60431053941430E+03  1.41004994947422E+04
(PID.TID 0000.0001)      cg2d_init_res =   3.19768273404610E-02
(PID.TID 0000.0001)      cg2d_iters(min,last) =      -1      24
(PID.TID 0000.0001)      cg2d_last_res =   6.33381485110297E-13
(PID.TID 0000.0001) // =======================================================
(PID.TID 0000.0001) // Begin MONITOR dynamic field statistics
(PID.TID 0000.0001) // =======================================================
(PID.TID 0000.0001) %MON time_tsnumber                =                     2
(PID.TID 0000.0001) %MON time_secondsf                =   2.4000000000000E+03
(PID.TID 0000.0001) %MON dynstat_eta_max              =  -2.5948920269784E+01
(PID.TID 0000.0001) %MON dynstat_eta_min              =  -1.9316220127586E+04
(PID.TID 0000.0001) %MON dynstat_eta_mean             =  -6.4575937802318E+03
(PID.TID 0000.0001) %MON dynstat_eta_sd               =   5.7615479591095E+03
(PID.TID 0000.0001) %MON dynstat_eta_del2             =   8.5716230790904E-01
(PID.TID 0000.0001) %MON dynstat_uvel_max             =   3.8588964740541E+01
(PID.TID 0000.0001) %MON dynstat_uvel_min             =  -2.6722572951623E+01
(PID.TID 0000.0001) %MON dynstat_uvel_mean            =   1.1771061295721E+01
(PID.TID 0000.0001) %MON dynstat_uvel_sd              =   1.8934798060920E+01
(PID.TID 0000.0001) %MON dynstat_uvel_del2            =   1.4473087461147E-02
(PID.TID 0000.0001) %MON dynstat_vvel_max             =   3.8588964740541E+01
(PID.TID 0000.0001) %MON dynstat_vvel_min             =  -2.6722572951623E+01
(PID.TID 0000.0001) %MON dynstat_vvel_mean            =   1.1771061295721E+01
(PID.TID 0000.0001) %MON dynstat_vvel_sd              =   1.8934798060920E+01
(PID.TID 0000.0001) %MON dynstat_vvel_del2            =   1.4473087461147E-02
(PID.TID 0000.0001) %MON dynstat_wvel_max             =   1.7399284045250E-02
(PID.TID 0000.0001) %MON dynstat_wvel_min             =  -8.4969049905368E-03
(PID.TID 0000.0001) %MON dynstat_wvel_mean            =   5.9619023015598E-18
(PID.TID 0000.0001) %MON dynstat_wvel_sd              =   7.6538610732162E-03
(PID.TID 0000.0001) %MON dynstat_wvel_del2            =   6.2488854275430E-06
(PID.TID 0000.0001) %MON dynstat_theta_max            =   3.0000000000000E+02
(PID.TID 0000.0001) %MON dynstat_theta_min            =   3.0000000000000E+02
(PID.TID 0000.0001) %MON dynstat_theta_mean           =   3.0000000000000E+02
(PID.TID 0000.0001) %MON dynstat_theta_sd             =   4.5474735088646E-13
(PID.TID 0000.0001) %MON dynstat_theta_del2           =   0.0000000000000E+00
(PID.TID 0000.0001) %MON dynstat_salt_max             =   9.8019963242740E-01
(PID.TID 0000.0001) %MON dynstat_salt_min             =  -5.3534772527836E-03
(PID.TID 0000.0001) %MON dynstat_salt_mean            =   6.6906568155926E-03
(PID.TID 0000.0001) %MON dynstat_salt_sd              =   6.1931076948943E-02
(PID.TID 0000.0001) %MON dynstat_salt_del2            =   1.5517185283365E-04
(PID.TID 0000.0001) %MON advcfl_uvel_max              =   3.4093001542077E-01
(PID.TID 0000.0001) %MON advcfl_vvel_max              =   3.4093001542077E-01
(PID.TID 0000.0001) %MON advcfl_wvel_max              =   4.1758281708600E-04
(PID.TID 0000.0001) %MON advcfl_W_hf_max              =   0.0000000000000E+00
(PID.TID 0000.0001) %MON am_eta_mean                  =  -7.7919817271058E+11
(PID.TID 0000.0001) %MON am_uZo_mean                  =   1.6711168325412E+12
(PID.TID 0000.0001) %MON am_tot_mean                  =   8.9191865983064E+11
(PID.TID 0000.0001) %MON pe_b_mean                    =   3.7447976157803E+02
(PID.TID 0000.0001) %MON ke_max                       =   7.4489163928952E+02
(PID.TID 0000.0001) %MON ke_mean                      =   4.9705898216489E+02
(PID.TID 0000.0001) %MON ke_vol                       =   5.0990436378078E+19
(PID.TID 0000.0001) %MON vort_r_min                   =  -1.2141817965615E-05
(PID.TID 0000.0001) %MON vort_r_max                   =   1.2141817965615E-05
(PID.TID 0000.0001) %MON vort_a_mean                  =  -4.9027024413674E-21
(PID.TID 0000.0001) %MON vort_a_sd                    =   9.0970854540927E-05
(PID.TID 0000.0001) %MON vort_p_mean                  =  -4.9027024413674E-21
(PID.TID 0000.0001) %MON vort_p_sd                    =   9.0970854540927E-05
(PID.TID 0000.0001) %MON surfExpan_theta_mean         =   3.6771601366528E-16
(PID.TID 0000.0001) %MON surfExpan_salt_mean          =   2.8143973884034E-05
(PID.TID 0000.0001) %MON surfExpan_Heat_mean          =   5.7575106726797E-14
(PID.TID 0000.0001) %MON En_Budget_T2PE_mean          =   0.0000000000000E+00
(PID.TID 0000.0001) // =======================================================
(PID.TID 0000.0001) // End MONITOR dynamic field statistics
(PID.TID 0000.0001) // =======================================================
 cg2d: Sum(rhs),rhsMax =   1.60678170468425E+03  1.40788134968629E+04
(PID.TID 0000.0001)      cg2d_init_res =   4.57307766656209E-02
(PID.TID 0000.0001)      cg2d_iters(min,last) =      -1      23
(PID.TID 0000.0001)      cg2d_last_res =   9.12563459843414E-13
(PID.TID 0000.0001) // =======================================================
(PID.TID 0000.0001) // Begin MONITOR dynamic field statistics
(PID.TID 0000.0001) // =======================================================
(PID.TID 0000.0001) %MON time_tsnumber                =                     3
(PID.TID 0000.0001) %MON time_secondsf                =   3.6000000000000E+03
(PID.TID 0000.0001) %MON dynstat_eta_max              =  -4.0519360730537E+01
(PID.TID 0000.0001) %MON dynstat_eta_min              =  -1.9286708988965E+04
(PID.TID 0000.0001) %MON dynstat_eta_mean             =  -6.4575937802319E+03
(PID.TID 0000.0001) %MON dynstat_eta_sd               =   5.7483450481021E+03
(PID.TID 0000.0001) %MON dynstat_eta_del2             =   8.5476872108225E-01
(PID.TID 0000.0001) %MON dynstat_uvel_max             =   3.8589084546987E+01
(PID.TID 0000.0001) %MON dynstat_uvel_min             =  -2.6801296370217E+01
(PID.TID 0000.0001) %MON dynstat_uvel_mean            =   1.1776575355634E+01
(PID.TID 0000.0001) %MON dynstat_uvel_sd              =   1.8950027803416E+01
(PID.TID 0000.0001) %MON dynstat_uvel_del2            =   1.4485923132544E-02
(PID.TID 0000.0001) %MON dynstat_vvel_max             =   3.8589084546987E+01
(PID.TID 0000.0001) %MON dynstat_vvel_min             =  -2.6801296370217E+01
(PID.TID 0000.0001) %MON dynstat_vvel_mean            =   1.1776575355634E+01
(PID.TID 0000.0001) %MON dynstat_vvel_sd              =   1.8950027803416E+01
(PID.TID 0000.0001) %MON dynstat_vvel_del2            =   1.4485923132544E-02
(PID.TID 0000.0001) %MON dynstat_wvel_max             =   2.4592615517135E-02
(PID.TID 0000.0001) %MON dynstat_wvel_min             =  -1.2371033915881E-02
(PID.TID 0000.0001) %MON dynstat_wvel_mean            =  -1.0041098613153E-17
(PID.TID 0000.0001) %MON dynstat_wvel_sd              =   1.1005407181192E-02
(PID.TID 0000.0001) %MON dynstat_wvel_del2            =   2.9032232340091E-06
(PID.TID 0000.0001) %MON dynstat_theta_max            =   3.0000000000000E+02
(PID.TID 0000.0001) %MON dynstat_theta_min            =   3.0000000000000E+02
(PID.TID 0000.0001) %MON dynstat_theta_mean           =   3.0000000000000E+02
(PID.TID 0000.0001) %MON dynstat_theta_sd             =   4.5474735088646E-13
(PID.TID 0000.0001) %MON dynstat_theta_del2           =   0.0000000000000E+00
(PID.TID 0000.0001) %MON dynstat_salt_max             =   9.8325694495013E-01
(PID.TID 0000.0001) %MON dynstat_salt_min             =  -6.9024757521669E-03
(PID.TID 0000.0001) %MON dynstat_salt_mean            =   6.6902201439323E-03
(PID.TID 0000.0001) %MON dynstat_salt_sd              =   6.1923116441796E-02
(PID.TID 0000.0001) %MON dynstat_salt_del2            =   1.5512499732287E-04
(PID.TID 0000.0001) %MON advcfl_uvel_max              =   3.4141151094569E-01
(PID.TID 0000.0001) %MON advcfl_vvel_max              =   3.4141151094569E-01
(PID.TID 0000.0001) %MON advcfl_wvel_max              =   5.9022277241124E-04
(PID.TID 0000.0001) %MON advcfl_W_hf_max              =   0.0000000000000E+00
(PID.TID 0000.0001) %MON am_eta_mean                  =  -7.8038006553860E+11
(PID.TID 0000.0001) %MON am_uZo_mean                  =   1.6720067416888E+12
(PID.TID 0000.0001) %MON am_tot_mean                  =   8.9162667615020E+11
(PID.TID 0000.0001) %MON pe_b_mean                    =   3.7371994111265E+02
(PID.TID 0000.0001) %MON ke_max                       =   7.4489502444801E+02
(PID.TID 0000.0001) %MON ke_mean                      =   4.9776570521194E+02
(PID.TID 0000.0001) %MON ke_vol                       =   5.0990436378078E+19
(PID.TID 0000.0001) %MON vort_r_min                   =  -1.2184323691929E-05
(PID.TID 0000.0001) %MON vort_r_max                   =   1.2184323691929E-05
(PID.TID 0000.0001) %MON vort_a_mean                  =   2.4513512206837E-21
(PID.TID 0000.0001) %MON vort_a_sd                    =   9.0975677057080E-05
(PID.TID 0000.0001) %MON vort_p_mean                  =   2.4513512206837E-21
(PID.TID 0000.0001) %MON vort_p_sd                    =   9.0975677057080E-05
(PID.TID 0000.0001) %MON surfExpan_theta_mean         =  -1.5934360592162E-15
(PID.TID 0000.0001) %MON surfExpan_salt_mean          =   4.1407739479387E-05
(PID.TID 0000.0001) %MON surfExpan_Heat_mean          =  -3.4545064036078E-13
(PID.TID 0000.0001) %MON En_Budget_T2PE_mean          =   0.0000000000000E+00
(PID.TID 0000.0001) // =======================================================
(PID.TID 0000.0001) // End MONITOR dynamic field statistics
(PID.TID 0000.0001) // =======================================================
 cg2d: Sum(rhs),rhsMax =   1.60982517122622E+03  1.40521966948686E+04
(PID.TID 0000.0001)      cg2d_init_res =   5.77173187298169E-02
(PID.TID 0000.0001)      cg2d_iters(min,last) =      -1      23
(PID.TID 0000.0001)      cg2d_last_res =   9.86636203678613E-13
(PID.TID 0000.0001) // =======================================================
(PID.TID 0000.0001) // Begin MONITOR dynamic field statistics
(PID.TID 0000.0001) // =======================================================
(PID.TID 0000.0001) %MON time_tsnumber                =                     4
(PID.TID 0000.0001) %MON time_secondsf                =   4.8000000000000E+03
(PID.TID 0000.0001) %MON dynstat_eta_max              =  -5.9236743003113E+01
(PID.TID 0000.0001) %MON dynstat_eta_min              =  -1.9250442341748E+04
(PID.TID 0000.0001) %MON dynstat_eta_mean             =  -6.4575937802320E+03
(PID.TID 0000.0001) %MON dynstat_eta_sd               =   5.7316932161269E+03
(PID.TID 0000.0001) %MON dynstat_eta_del2             =   8.5237282289657E-01
(PID.TID 0000.0001) %MON dynstat_uvel_max             =   3.8589340023455E+01
(PID.TID 0000.0001) %MON dynstat_uvel_min             =  -2.6889826021468E+01
(PID.TID 0000.0001) %MON dynstat_uvel_mean            =   1.1783886252983E+01
(PID.TID 0000.0001) %MON dynstat_uvel_sd              =   1.8969950937155E+01
(PID.TID 0000.0001) %MON dynstat_uvel_del2            =   1.4507798184236E-02
(PID.TID 0000.0001) %MON dynstat_vvel_max             =   3.8589340023455E+01
(PID.TID 0000.0001) %MON dynstat_vvel_min             =  -2.6889826021468E+01
(PID.TID 0000.0001) %MON dynstat_vvel_mean            =   1.1783886252983E+01
(PID.TID 0000.0001) %MON dynstat_vvel_sd              =   1.8969950937155E+01
(PID.TID 0000.0001) %MON dynstat_vvel_del2            =   1.4507798184236E-02
(PID.TID 0000.0001) %MON dynstat_wvel_max             =   3.0222206014117E-02
(PID.TID 0000.0001) %MON dynstat_wvel_min             =  -1.5871478946205E-02
(PID.TID 0000.0001) %MON dynstat_wvel_mean            =  -9.4135299498312E-18
(PID.TID 0000.0001) %MON dynstat_wvel_sd              =   1.3879709590017E-02
(PID.TID 0000.0001) %MON dynstat_wvel_del2            =   2.2844280340416E-06
(PID.TID 0000.0001) %MON dynstat_theta_max            =   3.0000000000000E+02
(PID.TID 0000.0001) %MON dynstat_theta_min            =   3.0000000000000E+02
(PID.TID 0000.0001) %MON dynstat_theta_mean           =   3.0000000000000E+02
(PID.TID 0000.0001) %MON dynstat_theta_sd             =   4.5474735088646E-13
(PID.TID 0000.0001) %MON dynstat_theta_del2           =   0.0000000000000E+00
(PID.TID 0000.0001) %MON dynstat_salt_max             =   9.8505363779915E-01
(PID.TID 0000.0001) %MON dynstat_salt_min             =  -7.9061871839220E-03
(PID.TID 0000.0001) %MON dynstat_salt_mean            =   6.6896277519463E-03
(PID.TID 0000.0001) %MON dynstat_salt_sd              =   6.1914489442592E-02
(PID.TID 0000.0001) %MON dynstat_salt_del2            =   1.5507533153031E-04
(PID.TID 0000.0001) %MON advcfl_uvel_max              =   3.4206044599872E-01
(PID.TID 0000.0001) %MON advcfl_vvel_max              =   3.4206044599872E-01
(PID.TID 0000.0001) %MON advcfl_wvel_max              =   7.2533294433880E-04
(PID.TID 0000.0001) %MON advcfl_W_hf_max              =   0.0000000000000E+00
(PID.TID 0000.0001) %MON am_eta_mean                  =  -7.8187069858689E+11
(PID.TID 0000.0001) %MON am_uZo_mean                  =   1.6732869815423E+12
(PID.TID 0000.0001) %MON am_tot_mean                  =   8.9141628295539E+11
(PID.TID 0000.0001) %MON pe_b_mean                    =   3.7276412277142E+02
(PID.TID 0000.0001) %MON ke_max                       =   7.4489920095985E+02
(PID.TID 0000.0001) %MON ke_mean                      =   4.9869330975788E+02
(PID.TID 0000.0001) %MON ke_vol                       =   5.0990436378078E+19
(PID.TID 0000.0001) %MON vort_r_min                   =  -1.2238940142491E-05
(PID.TID 0000.0001) %MON vort_r_max                   =   1.2238940142491E-05
(PID.TID 0000.0001) %MON vort_a_mean                  =   0.0000000000000E+00
(PID.TID 0000.0001) %MON vort_a_sd                    =   9.0982023907779E-05
(PID.TID 0000.0001) %MON vort_p_mean                  =   0.0000000000000E+00
(PID.TID 0000.0001) %MON vort_p_sd                    =   9.0982023907779E-05
(PID.TID 0000.0001) %MON surfExpan_theta_mean         =  -9.8057603644075E-16
(PID.TID 0000.0001) %MON surfExpan_salt_mean          =   5.3910526775013E-05
(PID.TID 0000.0001) %MON surfExpan_Heat_mean          =  -1.0235574529208E-13
(PID.TID 0000.0001) %MON En_Budget_T2PE_mean          =   0.0000000000000E+00
(PID.TID 0000.0001) // =======================================================
(PID.TID 0000.0001) // End MONITOR dynamic field statistics
(PID.TID 0000.0001) // =======================================================
 cg2d: Sum(rhs),rhsMax =   1.61326544485357E+03  1.40222305154964E+04
(PID.TID 0000.0001)      cg2d_init_res =   6.74171642212797E-02
(PID.TID 0000.0001)      cg2d_iters(min,last) =      -1      24
(PID.TID 0000.0001)      cg2d_last_res =   3.90869813004231E-13
(PID.TID 0000.0001) // =======================================================
(PID.TID 0000.0001) // Begin MONITOR dynamic field statistics
(PID.TID 0000.0001) // =======================================================
(PID.TID 0000.0001) %MON time_tsnumber                =                     5
(PID.TID 0000.0001) %MON time_secondsf                =   6.0000000000000E+03
(PID.TID 0000.0001) %MON dynstat_eta_max              =  -8.1587647827646E+01
(PID.TID 0000.0001) %MON dynstat_eta_min              =  -1.9209545204786E+04
(PID.TID 0000.0001) %MON dynstat_eta_mean             =  -6.4575937802320E+03
(PID.TID 0000.0001) %MON dynstat_eta_sd               =   5.7122778230906E+03
(PID.TID 0000.0001) %MON dynstat_eta_del2             =   8.4966655678753E-01
(PID.TID 0000.0001) %MON dynstat_uvel_max             =   3.8589774066275E+01
(PID.TID 0000.0001) %MON dynstat_uvel_min             =  -2.6982690226654E+01
(PID.TID 0000.0001) %MON dynstat_uvel_mean            =   1.1792732281265E+01
(PID.TID 0000.0001) %MON dynstat_uvel_sd              =   1.8993661136380E+01
(PID.TID 0000.0001) %MON dynstat_uvel_del2            =   1.4537596230268E-02
(PID.TID 0000.0001) %MON dynstat_vvel_max             =   3.8589774066275E+01
(PID.TID 0000.0001) %MON dynstat_vvel_min             =  -2.6982690226654E+01
(PID.TID 0000.0001) %MON dynstat_vvel_mean            =   1.1792732281265E+01
(PID.TID 0000.0001) %MON dynstat_vvel_sd              =   1.8993661136380E+01
(PID.TID 0000.0001) %MON dynstat_vvel_del2            =   1.4537596230268E-02
(PID.TID 0000.0001) %MON dynstat_wvel_max             =   3.4080947468319E-02
(PID.TID 0000.0001) %MON dynstat_wvel_min             =  -1.8907546073286E-02
(PID.TID 0000.0001) %MON dynstat_wvel_mean            =   6.2756866332208E-18
(PID.TID 0000.0001) %MON dynstat_wvel_sd              =   1.6192828626444E-02
(PID.TID 0000.0001) %MON dynstat_wvel_del2            =   2.5810576752968E-06
(PID.TID 0000.0001) %MON dynstat_theta_max            =   3.0000000000000E+02
(PID.TID 0000.0001) %MON dynstat_theta_min            =   3.0000000000000E+02
(PID.TID 0000.0001) %MON dynstat_theta_mean           =   3.0000000000000E+02
(PID.TID 0000.0001) %MON dynstat_theta_sd             =   4.5474735088646E-13
(PID.TID 0000.0001) %MON dynstat_theta_del2           =   0.0000000000000E+00
(PID.TID 0000.0001) %MON dynstat_salt_max             =   9.8557113919840E-01
(PID.TID 0000.0001) %MON dynstat_salt_min             =  -8.9955378986080E-03
(PID.TID 0000.0001) %MON dynstat_salt_mean            =   6.6888908055565E-03
(PID.TID 0000.0001) %MON dynstat_salt_sd              =   6.1905207866099E-02
(PID.TID 0000.0001) %MON dynstat_salt_del2            =   1.5502225496315E-04
(PID.TID 0000.0001) %MON advcfl_uvel_max              =   3.4284655493154E-01
(PID.TID 0000.0001) %MON advcfl_vvel_max              =   3.4284655493154E-01
(PID.TID 0000.0001) %MON advcfl_wvel_max              =   8.1794273923966E-04
(PID.TID 0000.0001) %MON advcfl_W_hf_max              =   0.0000000000000E+00
(PID.TID 0000.0001) %MON am_eta_mean                  =  -7.8360872545563E+11
(PID.TID 0000.0001) %MON am_uZo_mean                  =   1.6749015671344E+12
(PID.TID 0000.0001) %MON am_tot_mean                  =   8.9129284167879E+11
(PID.TID 0000.0001) %MON pe_b_mean                    =   3.7165317679332E+02
(PID.TID 0000.0001) %MON ke_max                       =   7.4490369342593E+02
(PID.TID 0000.0001) %MON ke_mean                      =   4.9980183878418E+02
(PID.TID 0000.0001) %MON ke_vol                       =   5.0990436378078E+19
(PID.TID 0000.0001) %MON vort_r_min                   =  -1.2302445263088E-05
(PID.TID 0000.0001) %MON vort_r_max                   =   1.2302445263088E-05
(PID.TID 0000.0001) %MON vort_a_mean                  =   0.0000000000000E+00
(PID.TID 0000.0001) %MON vort_a_sd                    =   9.0989635045936E-05
(PID.TID 0000.0001) %MON vort_p_mean                  =   0.0000000000000E+00
(PID.TID 0000.0001) %MON vort_p_sd                    =   9.0989635045936E-05
(PID.TID 0000.0001) %MON surfExpan_theta_mean         =   2.2062960819917E-15
(PID.TID 0000.0001) %MON surfExpan_salt_mean          =   6.5346709152874E-05
(PID.TID 0000.0001) %MON surfExpan_Heat_mean          =  -2.1750595874568E-13
(PID.TID 0000.0001) %MON En_Budget_T2PE_mean          =   0.0000000000000E+00
(PID.TID 0000.0001) // =======================================================
(PID.TID 0000.0001) // End MONITOR dynamic field statistics
(PID.TID 0000.0001) // =======================================================
 cg2d: Sum(rhs),rhsMax =   1.61691567845125E+03  1.39905749272525E+04
(PID.TID 0000.0001)      cg2d_init_res =   7.45566235260826E-02
(PID.TID 0000.0001)      cg2d_iters(min,last) =      -1      24
(PID.TID 0000.0001)      cg2d_last_res =   3.96837566621297E-13
(PID.TID 0000.0001) // =======================================================
(PID.TID 0000.0001) // Begin MONITOR dynamic field statistics
(PID.TID 0000.0001) // =======================================================
(PID.TID 0000.0001) %MON time_tsnumber                =                     6
(PID.TID 0000.0001) %MON time_secondsf                =   7.2000000000000E+03
(PID.TID 0000.0001) %MON dynstat_eta_max              =  -1.0697252229370E+02
(PID.TID 0000.0001) %MON dynstat_eta_min              =  -1.9166254286218E+04
(PID.TID 0000.0001) %MON dynstat_eta_mean             =  -6.4575937802320E+03
(PID.TID 0000.0001) %MON dynstat_eta_sd               =   5.6908658611388E+03
(PID.TID 0000.0001) %MON dynstat_eta_del2             =   8.4666988283733E-01
(PID.TID 0000.0001) %MON dynstat_uvel_max             =   3.8590375405217E+01
(PID.TID 0000.0001) %MON dynstat_uvel_min             =  -2.7075906761146E+01
(PID.TID 0000.0001) %MON dynstat_uvel_mean            =   1.1802801583010E+01
(PID.TID 0000.0001) %MON dynstat_uvel_sd              =   1.9020126666724E+01
(PID.TID 0000.0001) %MON dynstat_uvel_del2            =   1.4574160481658E-02
(PID.TID 0000.0001) %MON dynstat_vvel_max             =   3.8590375405217E+01
(PID.TID 0000.0001) %MON dynstat_vvel_min             =  -2.7075906761146E+01
(PID.TID 0000.0001) %MON dynstat_vvel_mean            =   1.1802801583010E+01
(PID.TID 0000.0001) %MON dynstat_vvel_sd              =   1.9020126666724E+01
(PID.TID 0000.0001) %MON dynstat_vvel_del2            =   1.4574160481658E-02
(PID.TID 0000.0001) %MON dynstat_wvel_max             =   3.6075765473592E-02
(PID.TID 0000.0001) %MON dynstat_wvel_min             =  -2.1393449793463E-02
(PID.TID 0000.0001) %MON dynstat_wvel_mean            =  -1.4434079256408E-17
(PID.TID 0000.0001) %MON dynstat_wvel_sd              =   1.7886282753941E-02
(PID.TID 0000.0001) %MON dynstat_wvel_del2            =   2.8401439398153E-06
(PID.TID 0000.0001) %MON dynstat_theta_max            =   3.0000000000000E+02
(PID.TID 0000.0001) %MON dynstat_theta_min            =   3.0000000000000E+02
(PID.TID 0000.0001) %MON dynstat_theta_mean           =   3.0000000000000E+02
(PID.TID 0000.0001) %MON dynstat_theta_sd             =   4.5474735088646E-13
(PID.TID 0000.0001) %MON dynstat_theta_del2           =   0.0000000000000E+00
(PID.TID 0000.0001) %MON dynstat_salt_max             =   9.8479135932298E-01
(PID.TID 0000.0001) %MON dynstat_salt_min             =  -1.0969867914955E-02
(PID.TID 0000.0001) %MON dynstat_salt_mean            =   6.6880243045335E-03
(PID.TID 0000.0001) %MON dynstat_salt_sd              =   6.1895325487031E-02
(PID.TID 0000.0001) %MON dynstat_salt_del2            =   1.5496546001344E-04
(PID.TID 0000.0001) %MON advcfl_uvel_max              =   3.4374139374277E-01
(PID.TID 0000.0001) %MON advcfl_vvel_max              =   3.4374139374277E-01
(PID.TID 0000.0001) %MON advcfl_wvel_max              =   8.6581837136621E-04
(PID.TID 0000.0001) %MON advcfl_W_hf_max              =   0.0000000000000E+00
(PID.TID 0000.0001) %MON am_eta_mean                  =  -7.8552551182051E+11
(PID.TID 0000.0001) %MON am_uZo_mean                  =   1.6767839933833E+12
(PID.TID 0000.0001) %MON am_tot_mean                  =   8.9125848156281E+11
(PID.TID 0000.0001) %MON pe_b_mean                    =   3.7043235839983E+02
(PID.TID 0000.0001) %MON ke_max                       =   7.4491162758197E+02
(PID.TID 0000.0001) %MON ke_mean                      =   5.0104530814717E+02
(PID.TID 0000.0001) %MON ke_vol                       =   5.0990436378078E+19
(PID.TID 0000.0001) %MON vort_r_min                   =  -1.2371266328476E-05
(PID.TID 0000.0001) %MON vort_r_max                   =   1.2371266328476E-05
(PID.TID 0000.0001) %MON vort_a_mean                  =  -7.3540536620511E-21
(PID.TID 0000.0001) %MON vort_a_sd                    =   9.0998206729634E-05
(PID.TID 0000.0001) %MON vort_p_mean                  =  -7.3540536620511E-21
(PID.TID 0000.0001) %MON vort_p_sd                    =   9.0998206729634E-05
(PID.TID 0000.0001) %MON surfExpan_theta_mean         =  -5.6383122095343E-15
(PID.TID 0000.0001) %MON surfExpan_salt_mean          =   7.5376138338191E-05
(PID.TID 0000.0001) %MON surfExpan_Heat_mean          =  -4.4780638565286E-13
(PID.TID 0000.0001) %MON En_Budget_T2PE_mean          =   0.0000000000000E+00
(PID.TID 0000.0001) // =======================================================
(PID.TID 0000.0001) // End MONITOR dynamic field statistics
(PID.TID 0000.0001) // =======================================================
 cg2d: Sum(rhs),rhsMax =   1.62058942591374E+03  1.39588594055319E+04
(PID.TID 0000.0001)      cg2d_init_res =   7.89852684271774E-02
(PID.TID 0000.0001)      cg2d_iters(min,last) =      -1      24
(PID.TID 0000.0001)      cg2d_last_res =   3.87836173583415E-13
(PID.TID 0000.0001) // =======================================================
(PID.TID 0000.0001) // Begin MONITOR dynamic field statistics
(PID.TID 0000.0001) // =======================================================
(PID.TID 0000.0001) %MON time_tsnumber                =                     7
(PID.TID 0000.0001) %MON time_secondsf                =   8.4000000000000E+03
(PID.TID 0000.0001) %MON dynstat_eta_max              =  -1.3470569530298E+02
(PID.TID 0000.0001) %MON dynstat_eta_min              =  -1.9122773222776E+04
(PID.TID 0000.0001) %MON dynstat_eta_mean             =  -6.4575937802320E+03
(PID.TID 0000.0001) %MON dynstat_eta_sd               =   5.6682753355093E+03
(PID.TID 0000.0001) %MON dynstat_eta_del2             =   8.4348934419743E-01
(PID.TID 0000.0001) %MON dynstat_uvel_max             =   3.8591077901239E+01
(PID.TID 0000.0001) %MON dynstat_uvel_min             =  -2.7166266771105E+01
(PID.TID 0000.0001) %MON dynstat_uvel_mean            =   1.1813744972796E+01
(PID.TID 0000.0001) %MON dynstat_uvel_sd              =   1.9048255659498E+01
(PID.TID 0000.0001) %MON dynstat_uvel_del2            =   1.4616128874075E-02
(PID.TID 0000.0001) %MON dynstat_vvel_max             =   3.8591077901239E+01
(PID.TID 0000.0001) %MON dynstat_vvel_min             =  -2.7166266771105E+01
(PID.TID 0000.0001) %MON dynstat_vvel_mean            =   1.1813744972796E+01
(PID.TID 0000.0001) %MON dynstat_vvel_sd              =   1.9048255659498E+01
(PID.TID 0000.0001) %MON dynstat_vvel_del2            =   1.4616128874075E-02
(PID.TID 0000.0001) %MON dynstat_wvel_max             =   3.6234219535173E-02
(PID.TID 0000.0001) %MON dynstat_wvel_min             =  -2.3251976777736E-02
(PID.TID 0000.0001) %MON dynstat_wvel_mean            =  -1.3178941929764E-17
(PID.TID 0000.0001) %MON dynstat_wvel_sd              =   1.8927545883552E-02
(PID.TID 0000.0001) %MON dynstat_wvel_del2            =   3.0769912830276E-06
(PID.TID 0000.0001) %MON dynstat_theta_max            =   3.0000000000000E+02
(PID.TID 0000.0001) %MON dynstat_theta_min            =   3.0000000000000E+02
(PID.TID 0000.0001) %MON dynstat_theta_mean           =   3.0000000000000E+02
(PID.TID 0000.0001) %MON dynstat_theta_sd             =   4.5474735088646E-13
(PID.TID 0000.0001) %MON dynstat_theta_del2           =   0.0000000000000E+00
(PID.TID 0000.0001) %MON dynstat_salt_max             =   9.8269752361937E-01
(PID.TID 0000.0001) %MON dynstat_salt_min             =  -1.2376908239622E-02
(PID.TID 0000.0001) %MON dynstat_salt_mean            =   6.6870475789833E-03
(PID.TID 0000.0001) %MON dynstat_salt_sd              =   6.1884917184422E-02
(PID.TID 0000.0001) %MON dynstat_salt_del2            =   1.5490461722970E-04
(PID.TID 0000.0001) %MON advcfl_uvel_max              =   3.4471384650088E-01
(PID.TID 0000.0001) %MON advcfl_vvel_max              =   3.4471384650088E-01
(PID.TID 0000.0001) %MON advcfl_wvel_max              =   8.6962126884416E-04
(PID.TID 0000.0001) %MON advcfl_W_hf_max              =   0.0000000000000E+00
(PID.TID 0000.0001) %MON am_eta_mean                  =  -7.8754789270601E+11
(PID.TID 0000.0001) %MON am_uZo_mean                  =   1.6788598661946E+12
(PID.TID 0000.0001) %MON am_tot_mean                  =   8.9131197348859E+11
(PID.TID 0000.0001) %MON pe_b_mean                    =   3.6914931354817E+02
(PID.TID 0000.0001) %MON ke_max                       =   7.4492136194703E+02
(PID.TID 0000.0001) %MON ke_mean                      =   5.0237438758744E+02
(PID.TID 0000.0001) %MON ke_vol                       =   5.0990436378078E+19
(PID.TID 0000.0001) %MON vort_r_min                   =  -1.2441778090725E-05
(PID.TID 0000.0001) %MON vort_r_max                   =   1.2441778090725E-05
(PID.TID 0000.0001) %MON vort_a_mean                  =   7.3540536620511E-21
(PID.TID 0000.0001) %MON vort_a_sd                    =   9.1007408059211E-05
(PID.TID 0000.0001) %MON vort_p_mean                  =   7.3540536620511E-21
(PID.TID 0000.0001) %MON vort_p_sd                    =   9.1007408059211E-05
(PID.TID 0000.0001) %MON surfExpan_theta_mean         =  -4.9028801822038E-16
(PID.TID 0000.0001) %MON surfExpan_salt_mean          =   8.3632031694236E-05
(PID.TID 0000.0001) %MON surfExpan_Heat_mean          =   1.2794468161510E-14
(PID.TID 0000.0001) %MON En_Budget_T2PE_mean          =   0.0000000000000E+00
(PID.TID 0000.0001) // =======================================================
(PID.TID 0000.0001) // End MONITOR dynamic field statistics
(PID.TID 0000.0001) // =======================================================
 cg2d: Sum(rhs),rhsMax =   1.62411159840829E+03  1.39285871565673E+04
(PID.TID 0000.0001)      cg2d_init_res =   8.06541710111405E-02
(PID.TID 0000.0001)      cg2d_iters(min,last) =      -1      24
(PID.TID 0000.0001)      cg2d_last_res =   3.82061394343829E-13
(PID.TID 0000.0001) // =======================================================
(PID.TID 0000.0001) // Begin MONITOR dynamic field statistics
(PID.TID 0000.0001) // =======================================================
(PID.TID 0000.0001) %MON time_tsnumber                =                     8
(PID.TID 0000.0001) %MON time_secondsf                =   9.6000000000000E+03
(PID.TID 0000.0001) %MON dynstat_eta_max              =  -1.6401160329986E+02
(PID.TID 0000.0001) %MON dynstat_eta_min              =  -1.9081144590182E+04
(PID.TID 0000.0001) %MON dynstat_eta_mean             =  -6.4575937802320E+03
(PID.TID 0000.0001) %MON dynstat_eta_sd               =   5.6453438220823E+03
(PID.TID 0000.0001) %MON dynstat_eta_del2             =   8.4023813029398E-01
(PID.TID 0000.0001) %MON dynstat_uvel_max             =   3.8591832309617E+01
(PID.TID 0000.0001) %MON dynstat_uvel_min             =  -2.7250742404165E+01
(PID.TID 0000.0001) %MON dynstat_uvel_mean            =   1.1825186822458E+01
(PID.TID 0000.0001) %MON dynstat_uvel_sd              =   1.9076946780392E+01
(PID.TID 0000.0001) %MON dynstat_uvel_del2            =   1.4661976054731E-02
(PID.TID 0000.0001) %MON dynstat_vvel_max             =   3.8591832309617E+01
(PID.TID 0000.0001) %MON dynstat_vvel_min             =  -2.7250742404165E+01
(PID.TID 0000.0001) %MON dynstat_vvel_mean            =   1.1825186822458E+01
(PID.TID 0000.0001) %MON dynstat_vvel_sd              =   1.9076946780392E+01
(PID.TID 0000.0001) %MON dynstat_vvel_del2            =   1.4661976054731E-02
(PID.TID 0000.0001) %MON dynstat_wvel_max             =   3.4690527161813E-02
(PID.TID 0000.0001) %MON dynstat_wvel_min             =  -2.4421589997341E-02
(PID.TID 0000.0001) %MON dynstat_wvel_mean            =   1.5061647919730E-17
(PID.TID 0000.0001) %MON dynstat_wvel_sd              =   1.9308562257941E-02
(PID.TID 0000.0001) %MON dynstat_wvel_del2            =   3.2789778190797E-06
(PID.TID 0000.0001) %MON dynstat_theta_max            =   3.0000000000000E+02
(PID.TID 0000.0001) %MON dynstat_theta_min            =   3.0000000000000E+02
(PID.TID 0000.0001) %MON dynstat_theta_mean           =   3.0000000000000E+02
(PID.TID 0000.0001) %MON dynstat_theta_sd             =   4.5474735088646E-13
(PID.TID 0000.0001) %MON dynstat_theta_del2           =   0.0000000000000E+00
(PID.TID 0000.0001) %MON dynstat_salt_max             =   9.7927558966101E-01
(PID.TID 0000.0001) %MON dynstat_salt_min             =  -1.3254339006228E-02
(PID.TID 0000.0001) %MON dynstat_salt_mean            =   6.6859845521708E-03
(PID.TID 0000.0001) %MON dynstat_salt_sd              =   6.1874080641220E-02
(PID.TID 0000.0001) %MON dynstat_salt_del2            =   1.5483936752915E-04
(PID.TID 0000.0001) %MON advcfl_uvel_max              =   3.4573051528850E-01
(PID.TID 0000.0001) %MON advcfl_vvel_max              =   3.4573051528850E-01
(PID.TID 0000.0001) %MON advcfl_wvel_max              =   8.3257265188351E-04
(PID.TID 0000.0001) %MON advcfl_W_hf_max              =   0.0000000000000E+00
(PID.TID 0000.0001) %MON am_eta_mean                  =  -7.8960099830327E+11
(PID.TID 0000.0001) %MON am_uZo_mean                  =   1.6810498972572E+12
(PID.TID 0000.0001) %MON am_tot_mean                  =   8.9144889895394E+11
(PID.TID 0000.0001) %MON pe_b_mean                    =   3.6785212150007E+02
(PID.TID 0000.0001) %MON ke_max                       =   7.4493171915215E+02
(PID.TID 0000.0001) %MON ke_mean                      =   5.0373851674888E+02
(PID.TID 0000.0001) %MON ke_vol                       =   5.0990436378078E+19
(PID.TID 0000.0001) %MON vort_r_min                   =  -1.2510537704148E-05
(PID.TID 0000.0001) %MON vort_r_max                   =   1.2510537704148E-05
(PID.TID 0000.0001) %MON vort_a_mean                  =   7.3540536620511E-21
(PID.TID 0000.0001) %MON vort_a_sd                    =   9.1016894288852E-05
(PID.TID 0000.0001) %MON vort_p_mean                  =   7.3540536620511E-21
(PID.TID 0000.0001) %MON vort_p_sd                    =   9.1016894288852E-05
(PID.TID 0000.0001) %MON surfExpan_theta_mean         =  -7.3543202733057E-16
(PID.TID 0000.0001) %MON surfExpan_salt_mean          =   8.9741367810982E-05
(PID.TID 0000.0001) %MON surfExpan_Heat_mean          =   1.2794468161510E-14
(PID.TID 0000.0001) %MON En_Budget_T2PE_mean          =   0.0000000000000E+00
(PID.TID 0000.0001) // =======================================================
(PID.TID 0000.0001) // End MONITOR dynamic field statistics
(PID.TID 0000.0001) // =======================================================
 cg2d: Sum(rhs),rhsMax =   1.62732789984079E+03  1.39010582640627E+04
(PID.TID 0000.0001)      cg2d_init_res =   7.96101571884625E-02
(PID.TID 0000.0001)      cg2d_iters(min,last) =      -1      24
(PID.TID 0000.0001)      cg2d_last_res =   3.81725143052566E-13
(PID.TID 0000.0001) // =======================================================
(PID.TID 0000.0001) // Begin MONITOR dynamic field statistics
(PID.TID 0000.0001) // =======================================================
(PID.TID 0000.0001) %MON time_tsnumber                =                     9
(PID.TID 0000.0001) %MON time_secondsf                =   1.0800000000000E+04
(PID.TID 0000.0001) %MON dynstat_eta_max              =  -1.9402409216981E+02
(PID.TID 0000.0001) %MON dynstat_eta_min              =  -1.9043146113835E+04
(PID.TID 0000.0001) %MON dynstat_eta_mean             =  -6.4575937802320E+03
(PID.TID 0000.0001) %MON dynstat_eta_sd               =   5.6228972851933E+03
(PID.TID 0000.0001) %MON dynstat_eta_del2             =   8.3702910331460E-01
(PID.TID 0000.0001) %MON dynstat_uvel_max             =   3.8592494840526E+01
(PID.TID 0000.0001) %MON dynstat_uvel_min             =  -2.7327970860728E+01
(PID.TID 0000.0001) %MON dynstat_uvel_mean            =   1.1836736931175E+01
(PID.TID 0000.0001) %MON dynstat_uvel_sd              =   1.9105134103931E+01
(PID.TID 0000.0001) %MON dynstat_uvel_del2            =   1.4710095293065E-02
(PID.TID 0000.0001) %MON dynstat_vvel_max             =   3.8592494840526E+01
(PID.TID 0000.0001) %MON dynstat_vvel_min             =  -2.7327970860728E+01
(PID.TID 0000.0001) %MON dynstat_vvel_mean            =   1.1836736931175E+01
(PID.TID 0000.0001) %MON dynstat_vvel_sd              =   1.9105134103931E+01
(PID.TID 0000.0001) %MON dynstat_vvel_del2            =   1.4710095293065E-02
(PID.TID 0000.0001) %MON dynstat_wvel_max             =   3.1665396955477E-02
(PID.TID 0000.0001) %MON dynstat_wvel_min             =  -2.5010407391583E-02
(PID.TID 0000.0001) %MON dynstat_wvel_mean            =  -9.4135299498312E-18
(PID.TID 0000.0001) %MON dynstat_wvel_sd              =   1.9043517561950E-02
(PID.TID 0000.0001) %MON dynstat_wvel_del2            =   3.4401534188250E-06
(PID.TID 0000.0001) %MON dynstat_theta_max            =   3.0000000000000E+02
(PID.TID 0000.0001) %MON dynstat_theta_min            =   3.0000000000000E+02
(PID.TID 0000.0001) %MON dynstat_theta_mean           =   3.0000000000000E+02
(PID.TID 0000.0001) %MON dynstat_theta_sd             =   4.5474735088646E-13
(PID.TID 0000.0001) %MON dynstat_theta_del2           =   0.0000000000000E+00
(PID.TID 0000.0001) %MON dynstat_salt_max             =   9.7451563471784E-01
(PID.TID 0000.0001) %MON dynstat_salt_min             =  -1.5048368195186E-02
(PID.TID 0000.0001) %MON dynstat_salt_mean            =   6.6848636685370E-03
(PID.TID 0000.0001) %MON dynstat_salt_sd              =   6.1862936227751E-02
(PID.TID 0000.0001) %MON dynstat_salt_del2            =   1.5476932811926E-04
(PID.TID 0000.0001) %MON advcfl_uvel_max              =   3.4675713456184E-01
(PID.TID 0000.0001) %MON advcfl_vvel_max              =   3.4675713456184E-01
(PID.TID 0000.0001) %MON advcfl_wvel_max              =   7.5996952693146E-04
(PID.TID 0000.0001) %MON advcfl_W_hf_max              =   0.0000000000000E+00
(PID.TID 0000.0001) %MON am_eta_mean                  =  -7.9161104264731E+11
(PID.TID 0000.0001) %MON am_uZo_mean                  =   1.6832729718194E+12
(PID.TID 0000.0001) %MON am_tot_mean                  =   8.9166192917206E+11
(PID.TID 0000.0001) %MON pe_b_mean                    =   3.6658745655163E+02
(PID.TID 0000.0001) %MON ke_max                       =   7.4494376678696E+02
(PID.TID 0000.0001) %MON ke_mean                      =   5.0508786556082E+02
(PID.TID 0000.0001) %MON ke_vol                       =   5.0990436378078E+19
(PID.TID 0000.0001) %MON vort_r_min                   =  -1.2574471332062E-05
(PID.TID 0000.0001) %MON vort_r_max                   =   1.2574471332062E-05
(PID.TID 0000.0001) %MON vort_a_mean                  =   7.3540536620511E-21
(PID.TID 0000.0001) %MON vort_a_sd                    =   9.1026319863245E-05
(PID.TID 0000.0001) %MON vort_p_mean                  =   7.3540536620511E-21
(PID.TID 0000.0001) %MON vort_p_sd                    =   9.1026319863245E-05
(PID.TID 0000.0001) %MON surfExpan_theta_mean         =  -2.4514400911019E-15
(PID.TID 0000.0001) %MON surfExpan_salt_mean          =   9.3345494031587E-05
(PID.TID 0000.0001) %MON surfExpan_Heat_mean          =   7.6766808969062E-14
(PID.TID 0000.0001) %MON En_Budget_T2PE_mean          =   0.0000000000000E+00
(PID.TID 0000.0001) // =======================================================
(PID.TID 0000.0001) // End MONITOR dynamic field statistics
(PID.TID 0000.0001) // =======================================================
 cg2d: Sum(rhs),rhsMax =   1.63011215865145E+03  1.38773150242226E+04
(PID.TID 0000.0001)      cg2d_init_res =   7.59871544468025E-02
(PID.TID 0000.0001)      cg2d_iters(min,last) =      -1      24
(PID.TID 0000.0001)      cg2d_last_res =   3.87431359842908E-13
(PID.TID 0000.0001) // =======================================================
(PID.TID 0000.0001) // Begin MONITOR dynamic field statistics
(PID.TID 0000.0001) // =======================================================
(PID.TID 0000.0001) %MON time_tsnumber                =                    10
(PID.TID 0000.0001) %MON time_secondsf                =   1.2000000000000E+04
(PID.TID 0000.0001) %MON dynstat_eta_max              =  -2.2379718519395E+02
(PID.TID 0000.0001) %MON dynstat_eta_min              =  -1.9010215517650E+04
(PID.TID 0000.0001) %MON dynstat_eta_mean             =  -6.4575937802320E+03
(PID.TID 0000.0001) %MON dynstat_eta_sd               =   5.6017202578242E+03
(PID.TID 0000.0001) %MON dynstat_eta_del2             =   8.3397227261821E-01
(PID.TID 0000.0001) %MON dynstat_uvel_max             =   3.8593058157935E+01
(PID.TID 0000.0001) %MON dynstat_uvel_min             =  -2.7395674790563E+01
(PID.TID 0000.0001) %MON dynstat_uvel_mean            =   1.1848003256713E+01
(PID.TID 0000.0001) %MON dynstat_uvel_sd              =   1.9131826034443E+01
(PID.TID 0000.0001) %MON dynstat_uvel_del2            =   1.4758854800114E-02
(PID.TID 0000.0001) %MON dynstat_vvel_max             =   3.8593058157935E+01
(PID.TID 0000.0001) %MON dynstat_vvel_min             =  -2.7395674790563E+01
(PID.TID 0000.0001) %MON dynstat_vvel_mean            =   1.1848003256713E+01
(PID.TID 0000.0001) %MON dynstat_vvel_sd              =   1.9131826034443E+01
(PID.TID 0000.0001) %MON dynstat_vvel_del2            =   1.4758854800114E-02
(PID.TID 0000.0001) %MON dynstat_wvel_max             =   2.7442163488135E-02
(PID.TID 0000.0001) %MON dynstat_wvel_min             =  -2.4810910853424E-02
(PID.TID 0000.0001) %MON dynstat_wvel_mean            =   1.8199491236340E-17
(PID.TID 0000.0001) %MON dynstat_wvel_sd              =   1.8166321107742E-02
(PID.TID 0000.0001) %MON dynstat_wvel_del2            =   3.5499607270881E-06
(PID.TID 0000.0001) %MON dynstat_theta_max            =   3.0000000000000E+02
(PID.TID 0000.0001) %MON dynstat_theta_min            =   3.0000000000000E+02
(PID.TID 0000.0001) %MON dynstat_theta_mean           =   3.0000000000000E+02
(PID.TID 0000.0001) %MON dynstat_theta_sd             =   4.5474735088646E-13
(PID.TID 0000.0001) %MON dynstat_theta_del2           =   0.0000000000000E+00
(PID.TID 0000.0001) %MON dynstat_salt_max             =   9.7456754204052E-01
(PID.TID 0000.0001) %MON dynstat_salt_min             =  -1.6730364787045E-02
(PID.TID 0000.0001) %MON dynstat_salt_mean            =   6.6837175728999E-03
(PID.TID 0000.0001) %MON dynstat_salt_sd              =   6.1851625755195E-02
(PID.TID 0000.0001) %MON dynstat_salt_del2            =   1.5469410046422E-04
(PID.TID 0000.0001) %MON advcfl_uvel_max              =   3.4775972432846E-01
(PID.TID 0000.0001) %MON advcfl_vvel_max              =   3.4775972432846E-01
(PID.TID 0000.0001) %MON advcfl_wvel_max              =   6.5861192371523E-04
(PID.TID 0000.0001) %MON advcfl_W_hf_max              =   0.0000000000000E+00
(PID.TID 0000.0001) %MON am_eta_mean                  =  -7.9350797066808E+11
(PID.TID 0000.0001) %MON am_uZo_mean                  =   1.6854491740364E+12
(PID.TID 0000.0001) %MON am_tot_mean                  =   8.9194120336834E+11
(PID.TID 0000.0001) %MON pe_b_mean                    =   3.6539893638705E+02
(PID.TID 0000.0001) %MON ke_max                       =   7.4495285541851E+02
(PID.TID 0000.0001) %MON ke_mean                      =   5.0637513010574E+02
(PID.TID 0000.0001) %MON ke_vol                       =   5.0990436378078E+19
(PID.TID 0000.0001) %MON vort_r_min                   =  -1.2631016663691E-05
(PID.TID 0000.0001) %MON vort_r_max                   =   1.2631016663691E-05
(PID.TID 0000.0001) %MON vort_a_mean                  =  -4.9027024413674E-21
(PID.TID 0000.0001) %MON vort_a_sd                    =   9.1035351129358E-05
(PID.TID 0000.0001) %MON vort_p_mean                  =  -4.9027024413674E-21
(PID.TID 0000.0001) %MON vort_p_sd                    =   9.1035351129358E-05
(PID.TID 0000.0001) %MON surfExpan_theta_mean         =  -1.4708640546611E-15
(PID.TID 0000.0001) %MON surfExpan_salt_mean          =   9.4124190980754E-05
(PID.TID 0000.0001) %MON surfExpan_Heat_mean          =   2.0471149058417E-13
(PID.TID 0000.0001) %MON En_Budget_T2PE_mean          =   0.0000000000000E+00
(PID.TID 0000.0001) // =======================================================
(PID.TID 0000.0001) // End MONITOR dynamic field statistics
(PID.TID 0000.0001) // =======================================================
 cg2d: Sum(rhs),rhsMax =   1.63237116889712E+03  1.38581104478251E+04
(PID.TID 0000.0001)      cg2d_init_res =   6.99978309479683E-02
(PID.TID 0000.0001)      cg2d_iters(min,last) =      -1      24
(PID.TID 0000.0001)      cg2d_last_res =   3.99716739860563E-13
(PID.TID 0000.0001) // =======================================================
(PID.TID 0000.0001) // Begin MONITOR dynamic field statistics
(PID.TID 0000.0001) // =======================================================
(PID.TID 0000.0001) %MON time_tsnumber                =                    11
(PID.TID 0000.0001) %MON time_secondsf                =   1.3200000000000E+04
(PID.TID 0000.0001) %MON dynstat_eta_max              =  -2.5232938178292E+02
(PID.TID 0000.0001) %MON dynstat_eta_min              =  -1.8983405634265E+04
(PID.TID 0000.0001) %MON dynstat_eta_mean             =  -6.4575937802320E+03
(PID.TID 0000.0001) %MON dynstat_eta_sd               =   5.5825284481374E+03
(PID.TID 0000.0001) %MON dynstat_eta_del2             =   8.3117110846377E-01
(PID.TID 0000.0001) %MON dynstat_uvel_max             =   3.8593429813609E+01
(PID.TID 0000.0001) %MON dynstat_uvel_min             =  -2.7451666122735E+01
(PID.TID 0000.0001) %MON dynstat_uvel_mean            =   1.1858605091749E+01
(PID.TID 0000.0001) %MON dynstat_uvel_sd              =   1.9156137159953E+01
(PID.TID 0000.0001) %MON dynstat_uvel_del2            =   1.4806653940325E-02
(PID.TID 0000.0001) %MON dynstat_vvel_max             =   3.8593429813609E+01
(PID.TID 0000.0001) %MON dynstat_vvel_min             =  -2.7451666122735E+01
(PID.TID 0000.0001) %MON dynstat_vvel_mean            =   1.1858605091749E+01
(PID.TID 0000.0001) %MON dynstat_vvel_sd              =   1.9156137159953E+01
(PID.TID 0000.0001) %MON dynstat_vvel_del2            =   1.4806653940325E-02
(PID.TID 0000.0001) %MON dynstat_wvel_max             =   2.2720035760324E-02
(PID.TID 0000.0001) %MON dynstat_wvel_min             =  -2.3779107349129E-02
(PID.TID 0000.0001) %MON dynstat_wvel_mean            =   1.4434079256408E-17
(PID.TID 0000.0001) %MON dynstat_wvel_sd              =   1.6728363076834E-02
(PID.TID 0000.0001) %MON dynstat_wvel_del2            =   3.5922351505221E-06
(PID.TID 0000.0001) %MON dynstat_theta_max            =   3.0000000000000E+02
(PID.TID 0000.0001) %MON dynstat_theta_min            =   3.0000000000000E+02
(PID.TID 0000.0001) %MON dynstat_theta_mean           =   3.0000000000000E+02
(PID.TID 0000.0001) %MON dynstat_theta_sd             =   4.5474735088646E-13
(PID.TID 0000.0001) %MON dynstat_theta_del2           =   0.0000000000000E+00
(PID.TID 0000.0001) %MON dynstat_salt_max             =   9.7991744245628E-01
(PID.TID 0000.0001) %MON dynstat_salt_min             =  -1.8482519630056E-02
(PID.TID 0000.0001) %MON dynstat_salt_mean            =   6.6825824759901E-03
(PID.TID 0000.0001) %MON dynstat_salt_sd              =   6.1840309903016E-02
(PID.TID 0000.0001) %MON dynstat_salt_del2            =   1.5461328151486E-04
(PID.TID 0000.0001) %MON advcfl_uvel_max              =   3.4870572456364E-01
(PID.TID 0000.0001) %MON advcfl_vvel_max              =   3.4870572456364E-01
(PID.TID 0000.0001) %MON advcfl_wvel_max              =   5.7069857637910E-04
(PID.TID 0000.0001) %MON advcfl_W_hf_max              =   0.0000000000000E+00
(PID.TID 0000.0001) %MON am_eta_mean                  =  -7.9522786884003E+11
(PID.TID 0000.0001) %MON am_uZo_mean                  =   1.6875026559654E+12
(PID.TID 0000.0001) %MON am_tot_mean                  =   8.9227478712537E+11
(PID.TID 0000.0001) %MON pe_b_mean                    =   3.6432570652377E+02
(PID.TID 0000.0001) %MON ke_max                       =   7.4495893067803E+02
(PID.TID 0000.0001) %MON ke_mean                      =   5.0755710579817E+02
(PID.TID 0000.0001) %MON ke_vol                       =   5.0990436378078E+19
(PID.TID 0000.0001) %MON vort_r_min                   =  -1.2678216640710E-05
(PID.TID 0000.0001) %MON vort_r_max                   =   1.2678216640710E-05
(PID.TID 0000.0001) %MON vort_a_mean                  =  -2.4513512206837E-21
(PID.TID 0000.0001) %MON vort_a_sd                    =   9.1043678211362E-05
(PID.TID 0000.0001) %MON vort_p_mean                  =  -2.4513512206837E-21
(PID.TID 0000.0001) %MON vort_p_sd                    =   9.1043678211362E-05
(PID.TID 0000.0001) %MON surfExpan_theta_mean         =   5.1480241913140E-15
(PID.TID 0000.0001) %MON surfExpan_salt_mean          =   9.1825112759357E-05
(PID.TID 0000.0001) %MON surfExpan_Heat_mean          =  -7.6766808969062E-14
(PID.TID 0000.0001) %MON En_Budget_T2PE_mean          =   0.0000000000000E+00
(PID.TID 0000.0001) // =======================================================
(PID.TID 0000.0001) // End MONITOR dynamic field statistics
(PID.TID 0000.0001) // =======================================================
 cg2d: Sum(rhs),rhsMax =   1.63404689246114E+03  1.38438988836789E+04
(PID.TID 0000.0001)      cg2d_init_res =   6.19283320451602E-02
(PID.TID 0000.0001)      cg2d_iters(min,last) =      -1      24
(PID.TID 0000.0001)      cg2d_last_res =   4.12063655563572E-13
(PID.TID 0000.0001) // =======================================================
(PID.TID 0000.0001) // Begin MONITOR dynamic field statistics
(PID.TID 0000.0001) // =======================================================
(PID.TID 0000.0001) %MON time_tsnumber                =                    12
(PID.TID 0000.0001) %MON time_secondsf                =   1.4400000000000E+04
(PID.TID 0000.0001) %MON dynstat_eta_max              =  -2.7860798939120E+02
(PID.TID 0000.0001) %MON dynstat_eta_min              =  -1.8963368906911E+04
(PID.TID 0000.0001) %MON dynstat_eta_mean             =  -6.4575937802320E+03
(PID.TID 0000.0001) %MON dynstat_eta_sd               =   5.5659447602267E+03
(PID.TID 0000.0001) %MON dynstat_eta_del2             =   8.2871858463514E-01
(PID.TID 0000.0001) %MON dynstat_uvel_max             =   3.8593606812612E+01
(PID.TID 0000.0001) %MON dynstat_uvel_min             =  -2.7497051817526E+01
(PID.TID 0000.0001) %MON dynstat_uvel_mean            =   1.1868186213089E+01
(PID.TID 0000.0001) %MON dynstat_uvel_sd              =   1.9177312567326E+01
(PID.TID 0000.0001) %MON dynstat_uvel_del2            =   1.4851977052560E-02
(PID.TID 0000.0001) %MON dynstat_vvel_max             =   3.8593606812612E+01
(PID.TID 0000.0001) %MON dynstat_vvel_min             =  -2.7497051817526E+01
(PID.TID 0000.0001) %MON dynstat_vvel_mean            =   1.1868186213089E+01
(PID.TID 0000.0001) %MON dynstat_vvel_sd              =   1.9177312567326E+01
(PID.TID 0000.0001) %MON dynstat_vvel_del2            =   1.4851977052560E-02
(PID.TID 0000.0001) %MON dynstat_wvel_max             =   1.8629944093525E-02
(PID.TID 0000.0001) %MON dynstat_wvel_min             =  -2.1905968014040E-02
(PID.TID 0000.0001) %MON dynstat_wvel_mean            =   4.3929806432546E-18
(PID.TID 0000.0001) %MON dynstat_wvel_sd              =   1.4797211610594E-02
(PID.TID 0000.0001) %MON dynstat_wvel_del2            =   3.5483827289932E-06
(PID.TID 0000.0001) %MON dynstat_theta_max            =   3.0000000000000E+02
(PID.TID 0000.0001) %MON dynstat_theta_min            =   3.0000000000000E+02
(PID.TID 0000.0001) %MON dynstat_theta_mean           =   3.0000000000000E+02
(PID.TID 0000.0001) %MON dynstat_theta_sd             =   4.5474735088646E-13
(PID.TID 0000.0001) %MON dynstat_theta_del2           =   0.0000000000000E+00
(PID.TID 0000.0001) %MON dynstat_salt_max             =   9.8391783374061E-01
(PID.TID 0000.0001) %MON dynstat_salt_min             =  -1.9913041431586E-02
(PID.TID 0000.0001) %MON dynstat_salt_mean            =   6.6814971280002E-03
(PID.TID 0000.0001) %MON dynstat_salt_sd              =   6.1829163875225E-02
(PID.TID 0000.0001) %MON dynstat_salt_del2            =   1.5452647806437E-04
(PID.TID 0000.0001) %MON advcfl_uvel_max              =   3.4956508125775E-01
(PID.TID 0000.0001) %MON advcfl_vvel_max              =   3.4956508125775E-01
(PID.TID 0000.0001) %MON advcfl_wvel_max              =   5.2574323233697E-04
(PID.TID 0000.0001) %MON advcfl_W_hf_max              =   0.0000000000000E+00
(PID.TID 0000.0001) %MON am_eta_mean                  =  -7.9671505903166E+11
(PID.TID 0000.0001) %MON am_uZo_mean                  =   1.6893642471400E+12
(PID.TID 0000.0001) %MON am_tot_mean                  =   8.9264918810832E+11
(PID.TID 0000.0001) %MON pe_b_mean                    =   3.6340129252193E+02
(PID.TID 0000.0001) %MON ke_max                       =   7.4496246892528E+02
(PID.TID 0000.0001) %MON ke_mean                      =   5.0859599843994E+02
(PID.TID 0000.0001) %MON ke_vol                       =   5.0990436378078E+19
(PID.TID 0000.0001) %MON vort_r_min                   =  -1.2714763937603E-05
(PID.TID 0000.0001) %MON vort_r_max                   =   1.2714763937603E-05
(PID.TID 0000.0001) %MON vort_a_mean                  =   2.4513512206837E-21
(PID.TID 0000.0001) %MON vort_a_sd                    =   9.1051025593476E-05
(PID.TID 0000.0001) %MON vort_p_mean                  =   2.4513512206837E-21
(PID.TID 0000.0001) %MON vort_p_sd                    =   9.1051025593476E-05
(PID.TID 0000.0001) %MON surfExpan_theta_mean         =   2.4514400911019E-15
(PID.TID 0000.0001) %MON surfExpan_salt_mean          =   8.6297193903358E-05
(PID.TID 0000.0001) %MON surfExpan_Heat_mean          =  -1.5353361793812E-13
(PID.TID 0000.0001) %MON En_Budget_T2PE_mean          =   0.0000000000000E+00
(PID.TID 0000.0001) // =======================================================
(PID.TID 0000.0001) // End MONITOR dynamic field statistics
(PID.TID 0000.0001) // =======================================================
 cg2d: Sum(rhs),rhsMax =   1.63511609538673E+03  1.38348463538740E+04
(PID.TID 0000.0001)      cg2d_init_res =   5.21414364118874E-02
(PID.TID 0000.0001)      cg2d_iters(min,last) =      -1      24
(PID.TID 0000.0001)      cg2d_last_res =   4.15617917834856E-13
(PID.TID 0000.0001) // =======================================================
(PID.TID 0000.0001) // Begin MONITOR dynamic field statistics
(PID.TID 0000.0001) // =======================================================
(PID.TID 0000.0001) %MON time_tsnumber                =                    13
(PID.TID 0000.0001) %MON time_secondsf                =   1.5600000000000E+04
(PID.TID 0000.0001) %MON dynstat_eta_max              =  -3.0166895858612E+02
(PID.TID 0000.0001) %MON dynstat_eta_min              =  -1.8950368607117E+04
(PID.TID 0000.0001) %MON dynstat_eta_mean             =  -6.4575937802320E+03
(PID.TID 0000.0001) %MON dynstat_eta_sd               =   5.5524795983095E+03
(PID.TID 0000.0001) %MON dynstat_eta_del2             =   8.2669350226724E-01
(PID.TID 0000.0001) %MON dynstat_uvel_max             =   3.8593620742143E+01
(PID.TID 0000.0001) %MON dynstat_uvel_min             =  -2.7531362672165E+01
(PID.TID 0000.0001) %MON dynstat_uvel_mean            =   1.1876427490753E+01
(PID.TID 0000.0001) %MON dynstat_uvel_sd              =   1.9194744677096E+01
(PID.TID 0000.0001) %MON dynstat_uvel_del2            =   1.4893442444122E-02
(PID.TID 0000.0001) %MON dynstat_vvel_max             =   3.8593620742143E+01
(PID.TID 0000.0001) %MON dynstat_vvel_min             =  -2.7531362672165E+01
(PID.TID 0000.0001) %MON dynstat_vvel_mean            =   1.1876427490753E+01
(PID.TID 0000.0001) %MON dynstat_vvel_sd              =   1.9194744677096E+01
(PID.TID 0000.0001) %MON dynstat_vvel_del2            =   1.4893442444122E-02
(PID.TID 0000.0001) %MON dynstat_wvel_max             =   1.4993291010097E-02
(PID.TID 0000.0001) %MON dynstat_wvel_min             =  -1.9226572131884E-02
(PID.TID 0000.0001) %MON dynstat_wvel_mean            =   8.1583926231871E-18
(PID.TID 0000.0001) %MON dynstat_wvel_sd              =   1.2457416773793E-02
(PID.TID 0000.0001) %MON dynstat_wvel_del2            =   3.4023006536088E-06
(PID.TID 0000.0001) %MON dynstat_theta_max            =   3.0000000000000E+02
(PID.TID 0000.0001) %MON dynstat_theta_min            =   3.0000000000000E+02
(PID.TID 0000.0001) %MON dynstat_theta_mean           =   3.0000000000000E+02
(PID.TID 0000.0001) %MON dynstat_theta_sd             =   4.5474735088646E-13
(PID.TID 0000.0001) %MON dynstat_theta_del2           =   0.0000000000000E+00
(PID.TID 0000.0001) %MON dynstat_salt_max             =   9.8654327191348E-01
(PID.TID 0000.0001) %MON dynstat_salt_min             =  -2.0688965263699E-02
(PID.TID 0000.0001) %MON dynstat_salt_mean            =   6.6805013626891E-03
(PID.TID 0000.0001) %MON dynstat_salt_sd              =   6.1818370949619E-02
(PID.TID 0000.0001) %MON dynstat_salt_del2            =   1.5443332319489E-04
(PID.TID 0000.0001) %MON advcfl_uvel_max              =   3.5031124696371E-01
(PID.TID 0000.0001) %MON advcfl_vvel_max              =   3.5031124696371E-01
(PID.TID 0000.0001) %MON advcfl_wvel_max              =   4.6143773116521E-04
(PID.TID 0000.0001) %MON advcfl_W_hf_max              =   0.0000000000000E+00
(PID.TID 0000.0001) %MON am_eta_mean                  =  -7.9792381189330E+11
(PID.TID 0000.0001) %MON am_uZo_mean                  =   1.6909737176632E+12
(PID.TID 0000.0001) %MON am_tot_mean                  =   8.9304990576985E+11
(PID.TID 0000.0001) %MON pe_b_mean                    =   3.6265273560067E+02
(PID.TID 0000.0001) %MON ke_max                       =   7.4496428521199E+02
(PID.TID 0000.0001) %MON ke_mean                      =   5.0946045070211E+02
(PID.TID 0000.0001) %MON ke_vol                       =   5.0990436378078E+19
(PID.TID 0000.0001) %MON vort_r_min                   =  -1.2739999470197E-05
(PID.TID 0000.0001) %MON vort_r_max                   =   1.2739999470197E-05
(PID.TID 0000.0001) %MON vort_a_mean                  =   2.4513512206837E-21
(PID.TID 0000.0001) %MON vort_a_sd                    =   9.1057161035023E-05
(PID.TID 0000.0001) %MON vort_p_mean                  =   2.4513512206837E-21
(PID.TID 0000.0001) %MON vort_p_sd                    =   9.1057161035023E-05
(PID.TID 0000.0001) %MON surfExpan_theta_mean         =   2.5740120956570E-15
(PID.TID 0000.0001) %MON surfExpan_salt_mean          =   7.7523497762783E-05
(PID.TID 0000.0001) %MON surfExpan_Heat_mean          =  -2.5588936323021E-14
(PID.TID 0000.0001) %MON En_Budget_T2PE_mean          =   0.0000000000000E+00
(PID.TID 0000.0001) // =======================================================
(PID.TID 0000.0001) // End MONITOR dynamic field statistics
(PID.TID 0000.0001) // =======================================================
 cg2d: Sum(rhs),rhsMax =   1.63558767305359E+03  1.38308574484351E+04
(PID.TID 0000.0001)      cg2d_init_res =   4.11037880906380E-02
(PID.TID 0000.0001)      cg2d_iters(min,last) =      -1      24
(PID.TID 0000.0001)      cg2d_last_res =   4.03842563883985E-13
(PID.TID 0000.0001) // =======================================================
(PID.TID 0000.0001) // Begin MONITOR dynamic field statistics
(PID.TID 0000.0001) // =======================================================
(PID.TID 0000.0001) %MON time_tsnumber                =                    14
(PID.TID 0000.0001) %MON time_secondsf                =   1.6800000000000E+04
(PID.TID 0000.0001) %MON dynstat_eta_max              =  -3.2063287857395E+02
(PID.TID 0000.0001) %MON dynstat_eta_min              =  -1.8944312857831E+04
(PID.TID 0000.0001) %MON dynstat_eta_mean             =  -6.4575937802321E+03
(PID.TID 0000.0001) %MON dynstat_eta_sd               =   5.5425161450142E+03
(PID.TID 0000.0001) %MON dynstat_eta_del2             =   8.2515746113314E-01
(PID.TID 0000.0001) %MON dynstat_uvel_max             =   3.8593525525488E+01
(PID.TID 0000.0001) %MON dynstat_uvel_min             =  -2.7555123171363E+01
(PID.TID 0000.0001) %MON dynstat_uvel_mean            =   1.1883058428450E+01
(PID.TID 0000.0001) %MON dynstat_uvel_sd              =   1.9207983059376E+01
(PID.TID 0000.0001) %MON dynstat_uvel_del2            =   1.4929845057166E-02
(PID.TID 0000.0001) %MON dynstat_vvel_max             =   3.8593525525488E+01
(PID.TID 0000.0001) %MON dynstat_vvel_min             =  -2.7555123171363E+01
(PID.TID 0000.0001) %MON dynstat_vvel_mean            =   1.1883058428450E+01
(PID.TID 0000.0001) %MON dynstat_vvel_sd              =   1.9207983059376E+01
(PID.TID 0000.0001) %MON dynstat_vvel_del2            =   1.4929845057166E-02
(PID.TID 0000.0001) %MON dynstat_wvel_max             =   1.1572456716472E-02
(PID.TID 0000.0001) %MON dynstat_wvel_min             =  -1.5816555575085E-02
(PID.TID 0000.0001) %MON dynstat_wvel_mean            =   6.2756866332208E-18
(PID.TID 0000.0001) %MON dynstat_wvel_sd              =   9.8169089457152E-03
(PID.TID 0000.0001) %MON dynstat_wvel_del2            =   3.1454780301989E-06
(PID.TID 0000.0001) %MON dynstat_theta_max            =   3.0000000000000E+02
(PID.TID 0000.0001) %MON dynstat_theta_min            =   3.0000000000000E+02
(PID.TID 0000.0001) %MON dynstat_theta_mean           =   3.0000000000000E+02
(PID.TID 0000.0001) %MON dynstat_theta_sd             =   4.5474735088646E-13
(PID.TID 0000.0001) %MON dynstat_theta_del2           =   0.0000000000000E+00
(PID.TID 0000.0001) %MON dynstat_salt_max             =   9.8777533877890E-01
(PID.TID 0000.0001) %MON dynstat_salt_min             =  -2.0867848075537E-02
(PID.TID 0000.0001) %MON dynstat_salt_mean            =   6.6796342513281E-03
(PID.TID 0000.0001) %MON dynstat_salt_sd              =   6.1808113964306E-02
(PID.TID 0000.0001) %MON dynstat_salt_del2            =   1.5433349340519E-04
(PID.TID 0000.0001) %MON advcfl_uvel_max              =   3.5092206908042E-01
(PID.TID 0000.0001) %MON advcfl_vvel_max              =   3.5092206908042E-01
(PID.TID 0000.0001) %MON advcfl_wvel_max              =   3.7959733380205E-04
(PID.TID 0000.0001) %MON advcfl_W_hf_max              =   0.0000000000000E+00
(PID.TID 0000.0001) %MON am_eta_mean                  =  -7.9881963426722E+11
(PID.TID 0000.0001) %MON am_uZo_mean                  =   1.6922816263512E+12
(PID.TID 0000.0001) %MON am_tot_mean                  =   8.9346199208398E+11
(PID.TID 0000.0001) %MON pe_b_mean                    =   3.6210001324118E+02
(PID.TID 0000.0001) %MON ke_max                       =   7.4496532305392E+02
(PID.TID 0000.0001) %MON ke_mean                      =   5.1012627638775E+02
(PID.TID 0000.0001) %MON ke_vol                       =   5.0990436378078E+19
(PID.TID 0000.0001) %MON vort_r_min                   =  -1.2753870584377E-05
(PID.TID 0000.0001) %MON vort_r_max                   =   1.2753870584377E-05
(PID.TID 0000.0001) %MON vort_a_mean                  =  -7.3540536620511E-21
(PID.TID 0000.0001) %MON vort_a_sd                    =   9.1061902534690E-05
(PID.TID 0000.0001) %MON vort_p_mean                  =  -7.3540536620511E-21
(PID.TID 0000.0001) %MON vort_p_sd                    =   9.1061902534690E-05
(PID.TID 0000.0001) %MON surfExpan_theta_mean         =   1.4095780523836E-15
(PID.TID 0000.0001) %MON surfExpan_salt_mean          =   6.5647416469398E-05
(PID.TID 0000.0001) %MON surfExpan_Heat_mean          =   2.1110872466492E-13
(PID.TID 0000.0001) %MON En_Budget_T2PE_mean          =   0.0000000000000E+00
(PID.TID 0000.0001) // =======================================================
(PID.TID 0000.0001) // End MONITOR dynamic field statistics
(PID.TID 0000.0001) // =======================================================
 cg2d: Sum(rhs),rhsMax =   1.63549807072680E+03  1.38316151851950E+04
(PID.TID 0000.0001)      cg2d_init_res =   2.95023686334886E-02
(PID.TID 0000.0001)      cg2d_iters(min,last) =      -1      24
(PID.TID 0000.0001)      cg2d_last_res =   3.71652685916242E-13
(PID.TID 0000.0001) // =======================================================
(PID.TID 0000.0001) // Begin MONITOR dynamic field statistics
(PID.TID 0000.0001) // =======================================================
(PID.TID 0000.0001) %MON time_tsnumber                =                    15
(PID.TID 0000.0001) %MON time_secondsf                =   1.8000000000000E+04
(PID.TID 0000.0001) %MON dynstat_eta_max              =  -3.3475627066421E+02
(PID.TID 0000.0001) %MON dynstat_eta_min              =  -1.8944806591568E+04
(PID.TID 0000.0001) %MON dynstat_eta_mean             =  -6.4575937802321E+03
(PID.TID 0000.0001) %MON dynstat_eta_sd               =   5.5363010614419E+03
(PID.TID 0000.0001) %MON dynstat_eta_del2             =   8.2415278231437E-01
(PID.TID 0000.0001) %MON dynstat_uvel_max             =   3.8593384504106E+01
(PID.TID 0000.0001) %MON dynstat_uvel_min             =  -2.7569242331775E+01
(PID.TID 0000.0001) %MON dynstat_uvel_mean            =   1.1887867120704E+01
(PID.TID 0000.0001) %MON dynstat_uvel_sd              =   1.9216737983603E+01
(PID.TID 0000.0001) %MON dynstat_uvel_del2            =   1.4960191548218E-02
(PID.TID 0000.0001) %MON dynstat_vvel_max             =   3.8593384504106E+01
(PID.TID 0000.0001) %MON dynstat_vvel_min             =  -2.7569242331775E+01
(PID.TID 0000.0001) %MON dynstat_vvel_mean            =   1.1887867120704E+01
(PID.TID 0000.0001) %MON dynstat_vvel_sd              =   1.9216737983603E+01
(PID.TID 0000.0001) %MON dynstat_vvel_del2            =   1.4960191548218E-02
(PID.TID 0000.0001) %MON dynstat_wvel_max             =   8.4318837427291E-03
(PID.TID 0000.0001) %MON dynstat_wvel_min             =  -1.1800346974479E-02
(PID.TID 0000.0001) %MON dynstat_wvel_mean            =  -2.5102746532883E-18
(PID.TID 0000.0001) %MON dynstat_wvel_sd              =   7.0338208726444E-03
(PID.TID 0000.0001) %MON dynstat_wvel_del2            =   2.7819204454202E-06
(PID.TID 0000.0001) %MON dynstat_theta_max            =   3.0000000000000E+02
(PID.TID 0000.0001) %MON dynstat_theta_min            =   3.0000000000000E+02
(PID.TID 0000.0001) %MON dynstat_theta_mean           =   3.0000000000000E+02
(PID.TID 0000.0001) %MON dynstat_theta_sd             =   4.5474735088646E-13
(PID.TID 0000.0001) %MON dynstat_theta_del2           =   0.0000000000000E+00
(PID.TID 0000.0001) %MON dynstat_salt_max             =   9.8760324505153E-01
(PID.TID 0000.0001) %MON dynstat_salt_min             =  -2.0510207605153E-02
(PID.TID 0000.0001) %MON dynstat_salt_mean            =   6.6789319901158E-03
(PID.TID 0000.0001) %MON dynstat_salt_sd              =   6.1798565269003E-02
(PID.TID 0000.0001) %MON dynstat_salt_del2            =   1.5422672505062E-04
(PID.TID 0000.0001) %MON advcfl_uvel_max              =   3.5138053863598E-01
(PID.TID 0000.0001) %MON advcfl_vvel_max              =   3.5138053863598E-01
(PID.TID 0000.0001) %MON advcfl_wvel_max              =   2.8320832738750E-04
(PID.TID 0000.0001) %MON advcfl_W_hf_max              =   0.0000000000000E+00
(PID.TID 0000.0001) %MON am_eta_mean                  =  -7.9938010376726E+11
(PID.TID 0000.0001) %MON am_uZo_mean                  =   1.6932507055452E+12
(PID.TID 0000.0001) %MON am_tot_mean                  =   8.9387060177793E+11
(PID.TID 0000.0001) %MON pe_b_mean                    =   3.6175573436707E+02
(PID.TID 0000.0001) %MON ke_max                       =   7.4496648285443E+02
(PID.TID 0000.0001) %MON ke_mean                      =   5.1057690776603E+02
(PID.TID 0000.0001) %MON ke_vol                       =   5.0990436378078E+19
(PID.TID 0000.0001) %MON vort_r_min                   =  -1.2756856182288E-05
(PID.TID 0000.0001) %MON vort_r_max                   =   1.2756856182288E-05
(PID.TID 0000.0001) %MON vort_a_mean                  =  -1.2256756103419E-20
(PID.TID 0000.0001) %MON vort_a_sd                    =   9.1065123162058E-05
(PID.TID 0000.0001) %MON vort_p_mean                  =  -1.2256756103419E-20
(PID.TID 0000.0001) %MON vort_p_sd                    =   9.1065123162058E-05
(PID.TID 0000.0001) %MON surfExpan_theta_mean         =   1.2257200455509E-16
(PID.TID 0000.0001) %MON surfExpan_salt_mean          =   5.0986634486582E-05
(PID.TID 0000.0001) %MON surfExpan_Heat_mean          =  -9.5958511211328E-15
(PID.TID 0000.0001) %MON En_Budget_T2PE_mean          =   0.0000000000000E+00
(PID.TID 0000.0001) // =======================================================
(PID.TID 0000.0001) // End MONITOR dynamic field statistics
(PID.TID 0000.0001) // =======================================================
 cg2d: Sum(rhs),rhsMax =   1.63490534302313E+03  1.38366297761263E+04
(PID.TID 0000.0001)      cg2d_init_res =   1.88069818222699E-02
(PID.TID 0000.0001)      cg2d_iters(min,last) =      -1      24
(PID.TID 0000.0001)      cg2d_last_res =   3.15039441087846E-13
(PID.TID 0000.0001) // =======================================================
(PID.TID 0000.0001) // Begin MONITOR dynamic field statistics
(PID.TID 0000.0001) // =======================================================
(PID.TID 0000.0001) %MON time_tsnumber                =                    16
(PID.TID 0000.0001) %MON time_secondsf                =   1.9200000000000E+04
(PID.TID 0000.0001) %MON dynstat_eta_max              =  -3.4348836978952E+02
(PID.TID 0000.0001) %MON dynstat_eta_min              =  -1.8951215701298E+04
(PID.TID 0000.0001) %MON dynstat_eta_mean             =  -6.4575937802321E+03
(PID.TID 0000.0001) %MON dynstat_eta_sd               =   5.5339407640115E+03
(PID.TID 0000.0001) %MON dynstat_eta_del2             =   8.2370156103575E-01
(PID.TID 0000.0001) %MON dynstat_uvel_max             =   3.8593258969315E+01
(PID.TID 0000.0001) %MON dynstat_uvel_min             =  -2.7575149388058E+01
(PID.TID 0000.0001) %MON dynstat_uvel_mean            =   1.1890708155767E+01
(PID.TID 0000.0001) %MON dynstat_uvel_sd              =   1.9220878638205E+01
(PID.TID 0000.0001) %MON dynstat_uvel_del2            =   1.4983726832870E-02
(PID.TID 0000.0001) %MON dynstat_vvel_max             =   3.8593258969315E+01
(PID.TID 0000.0001) %MON dynstat_vvel_min             =  -2.7575149388058E+01
(PID.TID 0000.0001) %MON dynstat_vvel_mean            =   1.1890708155767E+01
(PID.TID 0000.0001) %MON dynstat_vvel_sd              =   1.9220878638205E+01
(PID.TID 0000.0001) %MON dynstat_vvel_del2            =   1.4983726832870E-02
(PID.TID 0000.0001) %MON dynstat_wvel_max             =   5.7391557331063E-03
(PID.TID 0000.0001) %MON dynstat_wvel_min             =  -7.3680160684602E-03
(PID.TID 0000.0001) %MON dynstat_wvel_mean            =   2.0003751143391E-18
(PID.TID 0000.0001) %MON dynstat_wvel_sd              =   4.4473185274504E-03
(PID.TID 0000.0001) %MON dynstat_wvel_del2            =   2.3347986434457E-06
(PID.TID 0000.0001) %MON dynstat_theta_max            =   3.0000000000000E+02
(PID.TID 0000.0001) %MON dynstat_theta_min            =   3.0000000000000E+02
(PID.TID 0000.0001) %MON dynstat_theta_mean           =   3.0000000000000E+02
(PID.TID 0000.0001) %MON dynstat_theta_sd             =   4.5474735088646E-13
(PID.TID 0000.0001) %MON dynstat_theta_del2           =   0.0000000000000E+00
(PID.TID 0000.0001) %MON dynstat_salt_max             =   9.8602414931550E-01
(PID.TID 0000.0001) %MON dynstat_salt_min             =  -2.1559037047321E-02
(PID.TID 0000.0001) %MON dynstat_salt_mean            =   6.6784257081323E-03
(PID.TID 0000.0001) %MON dynstat_salt_sd              =   6.1789876060541E-02
(PID.TID 0000.0001) %MON dynstat_salt_del2            =   1.5411282895365E-04
(PID.TID 0000.0001) %MON advcfl_uvel_max              =   3.5167537113489E-01
(PID.TID 0000.0001) %MON advcfl_vvel_max              =   3.5167537113489E-01
(PID.TID 0000.0001) %MON advcfl_wvel_max              =   1.7683238564305E-04
(PID.TID 0000.0001) %MON advcfl_W_hf_max              =   0.0000000000000E+00
(PID.TID 0000.0001) %MON am_eta_mean                  =  -7.9959524202541E+11
(PID.TID 0000.0001) %MON am_uZo_mean                  =   1.6938567547410E+12
(PID.TID 0000.0001) %MON am_tot_mean                  =   8.9426151271560E+11
(PID.TID 0000.0001) %MON pe_b_mean                    =   3.6162508905040E+02
(PID.TID 0000.0001) %MON ke_max                       =   7.4496850690266E+02
(PID.TID 0000.0001) %MON ke_mean                      =   5.1080357197270E+02
(PID.TID 0000.0001) %MON ke_vol                       =   5.0990436378078E+19
(PID.TID 0000.0001) %MON vort_r_min                   =  -1.2749867470986E-05
(PID.TID 0000.0001) %MON vort_r_max                   =   1.2749867470986E-05
(PID.TID 0000.0001) %MON vort_a_mean                  =  -2.4513512206837E-21
(PID.TID 0000.0001) %MON vort_a_sd                    =   9.1066753676382E-05
(PID.TID 0000.0001) %MON vort_p_mean                  =  -2.4513512206837E-21
(PID.TID 0000.0001) %MON vort_p_sd                    =   9.1066753676382E-05
(PID.TID 0000.0001) %MON surfExpan_theta_mean         =   6.1286002277547E-16
(PID.TID 0000.0001) %MON surfExpan_salt_mean          =   3.4031396026387E-05
(PID.TID 0000.0001) %MON surfExpan_Heat_mean          =   3.8383404484531E-14
(PID.TID 0000.0001) %MON En_Budget_T2PE_mean          =   0.0000000000000E+00
(PID.TID 0000.0001) // =======================================================
(PID.TID 0000.0001) // End MONITOR dynamic field statistics
(PID.TID 0000.0001) // =======================================================
 cg2d: Sum(rhs),rhsMax =   1.63388250901826E+03  1.38452917058366E+04
(PID.TID 0000.0001)      cg2d_init_res =   1.38012799333410E-02
(PID.TID 0000.0001)      cg2d_iters(min,last) =      -1      23
(PID.TID 0000.0001)      cg2d_last_res =   9.09511284783248E-13
(PID.TID 0000.0001) // =======================================================
(PID.TID 0000.0001) // Begin MONITOR dynamic field statistics
(PID.TID 0000.0001) // =======================================================
(PID.TID 0000.0001) %MON time_tsnumber                =                    17
(PID.TID 0000.0001) %MON time_secondsf                =   2.0400000000000E+04
(PID.TID 0000.0001) %MON dynstat_eta_max              =  -3.4647577590633E+02
(PID.TID 0000.0001) %MON dynstat_eta_min              =  -1.8962736962333E+04
(PID.TID 0000.0001) %MON dynstat_eta_mean             =  -6.4575937802321E+03
(PID.TID 0000.0001) %MON dynstat_eta_sd               =   5.5354031232161E+03
(PID.TID 0000.0001) %MON dynstat_eta_del2             =   8.2380585033959E-01
(PID.TID 0000.0001) %MON dynstat_uvel_max             =   3.8593231619058E+01
(PID.TID 0000.0001) %MON dynstat_uvel_min             =  -2.7572735324297E+01
(PID.TID 0000.0001) %MON dynstat_uvel_mean            =   1.1891508066470E+01
(PID.TID 0000.0001) %MON dynstat_uvel_sd              =   1.9220427032278E+01
(PID.TID 0000.0001) %MON dynstat_uvel_del2            =   1.4999951513130E-02
(PID.TID 0000.0001) %MON dynstat_vvel_max             =   3.8593231619058E+01
(PID.TID 0000.0001) %MON dynstat_vvel_min             =  -2.7572735324297E+01
(PID.TID 0000.0001) %MON dynstat_vvel_mean            =   1.1891508066470E+01
(PID.TID 0000.0001) %MON dynstat_vvel_sd              =   1.9220427032278E+01
(PID.TID 0000.0001) %MON dynstat_vvel_del2            =   1.4999951513130E-02
(PID.TID 0000.0001) %MON dynstat_wvel_max             =   4.0322207561006E-03
(PID.TID 0000.0001) %MON dynstat_wvel_min             =  -9.6010508629297E-03
(PID.TID 0000.0001) %MON dynstat_wvel_mean            =  -3.0593972336952E-18
(PID.TID 0000.0001) %MON dynstat_wvel_sd              =   3.2040936463825E-03
(PID.TID 0000.0001) %MON dynstat_wvel_del2            =   1.8612223457990E-06
(PID.TID 0000.0001) %MON dynstat_theta_max            =   3.0000000000000E+02
(PID.TID 0000.0001) %MON dynstat_theta_min            =   3.0000000000000E+02
(PID.TID 0000.0001) %MON dynstat_theta_mean           =   3.0000000000000E+02
(PID.TID 0000.0001) %MON dynstat_theta_sd             =   4.5474735088646E-13
(PID.TID 0000.0001) %MON dynstat_theta_del2           =   0.0000000000000E+00
(PID.TID 0000.0001) %MON dynstat_salt_max             =   9.8304319399895E-01
(PID.TID 0000.0001) %MON dynstat_salt_min             =  -2.2558863305415E-02
(PID.TID 0000.0001) %MON dynstat_salt_mean            =   6.6781394090969E-03
(PID.TID 0000.0001) %MON dynstat_salt_sd              =   6.1782166201743E-02
(PID.TID 0000.0001) %MON dynstat_salt_del2            =   1.5399170226426E-04
(PID.TID 0000.0001) %MON advcfl_uvel_max              =   3.5180139068450E-01
(PID.TID 0000.0001) %MON advcfl_vvel_max              =   3.5180139068450E-01
(PID.TID 0000.0001) %MON advcfl_wvel_max              =   2.3042522071031E-04
(PID.TID 0000.0001) %MON advcfl_W_hf_max              =   0.0000000000000E+00
(PID.TID 0000.0001) %MON am_eta_mean                  =  -7.9946743541081E+11
(PID.TID 0000.0001) %MON am_uZo_mean                  =   1.6940890352113E+12
(PID.TID 0000.0001) %MON am_tot_mean                  =   8.9462159980052E+11
(PID.TID 0000.0001) %MON pe_b_mean                    =   3.6170602583501E+02
(PID.TID 0000.0001) %MON ke_max                       =   7.4497191273943E+02
(PID.TID 0000.0001) %MON ke_mean                      =   5.1080522039686E+02
(PID.TID 0000.0001) %MON ke_vol                       =   5.0990436378078E+19
(PID.TID 0000.0001) %MON vort_r_min                   =  -1.2734134428125E-05
(PID.TID 0000.0001) %MON vort_r_max                   =   1.2734134428125E-05
(PID.TID 0000.0001) %MON vort_a_mean                  =  -4.9027024413674E-21
(PID.TID 0000.0001) %MON vort_a_sd                    =   9.1066782948496E-05
(PID.TID 0000.0001) %MON vort_p_mean                  =  -4.9027024413674E-21
(PID.TID 0000.0001) %MON vort_p_sd                    =   9.1066782948496E-05
(PID.TID 0000.0001) %MON surfExpan_theta_mean         =  -8.2736103074689E-16
(PID.TID 0000.0001) %MON surfExpan_salt_mean          =   1.5426415964421E-05
(PID.TID 0000.0001) %MON surfExpan_Heat_mean          =  -1.0235574529208E-13
(PID.TID 0000.0001) %MON En_Budget_T2PE_mean          =   0.0000000000000E+00
(PID.TID 0000.0001) // =======================================================
(PID.TID 0000.0001) // End MONITOR dynamic field statistics
(PID.TID 0000.0001) // =======================================================
 cg2d: Sum(rhs),rhsMax =   1.63251091084571E+03  1.38569242019356E+04
(PID.TID 0000.0001)      cg2d_init_res =   1.96054780906936E-02
(PID.TID 0000.0001)      cg2d_iters(min,last) =      -1      23
(PID.TID 0000.0001)      cg2d_last_res =   6.48914942212812E-13
(PID.TID 0000.0001) // =======================================================
(PID.TID 0000.0001) // Begin MONITOR dynamic field statistics
(PID.TID 0000.0001) // =======================================================
(PID.TID 0000.0001) %MON time_tsnumber                =                    18
(PID.TID 0000.0001) %MON time_secondsf                =   2.1600000000000E+04
(PID.TID 0000.0001) %MON dynstat_eta_max              =  -3.4359235328521E+02
(PID.TID 0000.0001) %MON dynstat_eta_min              =  -1.8978467147999E+04
(PID.TID 0000.0001) %MON dynstat_eta_mean             =  -6.4575937802320E+03
(PID.TID 0000.0001) %MON dynstat_eta_sd               =   5.5405241445701E+03
(PID.TID 0000.0001) %MON dynstat_eta_del2             =   8.2444879969946E-01
(PID.TID 0000.0001) %MON dynstat_uvel_max             =   3.8593306201794E+01
(PID.TID 0000.0001) %MON dynstat_uvel_min             =  -2.7561901861942E+01
(PID.TID 0000.0001) %MON dynstat_uvel_mean            =   1.1890268030476E+01
(PID.TID 0000.0001) %MON dynstat_uvel_sd              =   1.9215548561385E+01
(PID.TID 0000.0001) %MON dynstat_uvel_del2            =   1.5008630005794E-02
(PID.TID 0000.0001) %MON dynstat_vvel_max             =   3.8593306201794E+01
(PID.TID 0000.0001) %MON dynstat_vvel_min             =  -2.7561901861942E+01
(PID.TID 0000.0001) %MON dynstat_vvel_mean            =   1.1890268030476E+01
(PID.TID 0000.0001) %MON dynstat_vvel_sd              =   1.9215548561385E+01
(PID.TID 0000.0001) %MON dynstat_vvel_del2            =   1.5008630005794E-02
(PID.TID 0000.0001) %MON dynstat_wvel_max             =   3.6368644098011E-03
(PID.TID 0000.0001) %MON dynstat_wvel_min             =  -1.3108488055027E-02
(PID.TID 0000.0001) %MON dynstat_wvel_mean            =  -3.6085198141020E-18
(PID.TID 0000.0001) %MON dynstat_wvel_sd              =   4.6102158975824E-03
(PID.TID 0000.0001) %MON dynstat_wvel_del2            =   1.4882313030982E-06
(PID.TID 0000.0001) %MON dynstat_theta_max            =   3.0000000000000E+02
(PID.TID 0000.0001) %MON dynstat_theta_min            =   3.0000000000000E+02
(PID.TID 0000.0001) %MON dynstat_theta_mean           =   3.0000000000000E+02
(PID.TID 0000.0001) %MON dynstat_theta_sd             =   4.5474735088646E-13
(PID.TID 0000.0001) %MON dynstat_theta_del2           =   0.0000000000000E+00
(PID.TID 0000.0001) %MON dynstat_salt_max             =   9.7867327455466E-01
(PID.TID 0000.0001) %MON dynstat_salt_min             =  -2.4650764831439E-02
(PID.TID 0000.0001) %MON dynstat_salt_mean            =   6.6780882479617E-03
(PID.TID 0000.0001) %MON dynstat_salt_sd              =   6.1775515572464E-02
(PID.TID 0000.0001) %MON dynstat_salt_del2            =   1.5386333679371E-04
(PID.TID 0000.0001) %MON advcfl_uvel_max              =   3.5175969090153E-01
(PID.TID 0000.0001) %MON advcfl_vvel_max              =   3.5175969090153E-01
(PID.TID 0000.0001) %MON advcfl_wvel_max              =   3.1460371332066E-04
(PID.TID 0000.0001) %MON advcfl_W_hf_max              =   0.0000000000000E+00
(PID.TID 0000.0001) %MON am_eta_mean                  =  -7.9901092769172E+11
(PID.TID 0000.0001) %MON am_uZo_mean                  =   1.6939501764796E+12
(PID.TID 0000.0001) %MON am_tot_mean                  =   8.9493924878792E+11
(PID.TID 0000.0001) %MON pe_b_mean                    =   3.6198962613528E+02
(PID.TID 0000.0001) %MON ke_max                       =   7.4497695968567E+02
(PID.TID 0000.0001) %MON ke_mean                      =   5.1058823959789E+02
(PID.TID 0000.0001) %MON ke_vol                       =   5.0990436378078E+19
(PID.TID 0000.0001) %MON vort_r_min                   =  -1.2711089017189E-05
(PID.TID 0000.0001) %MON vort_r_max                   =   1.2711089017189E-05
(PID.TID 0000.0001) %MON vort_a_mean                  =   9.8054048827349E-21
(PID.TID 0000.0001) %MON vort_a_sd                    =   9.1065256286977E-05
(PID.TID 0000.0001) %MON vort_p_mean                  =   9.8054048827349E-21
(PID.TID 0000.0001) %MON vort_p_sd                    =   9.1065256286977E-05
(PID.TID 0000.0001) %MON surfExpan_theta_mean         =  -1.1644340432734E-15
(PID.TID 0000.0001) %MON surfExpan_salt_mean          =  -4.0616894439672E-06
(PID.TID 0000.0001) %MON surfExpan_Heat_mean          =  -1.9191702242266E-14
(PID.TID 0000.0001) %MON En_Budget_T2PE_mean          =   0.0000000000000E+00
(PID.TID 0000.0001) // =======================================================
(PID.TID 0000.0001) // End MONITOR dynamic field statistics
(PID.TID 0000.0001) // =======================================================
 Computing Diagnostic #     27  SALT         Counter:      18   Parms: SMR     MR      
 Computing Diagnostic #     33  SALTSQ       Counter:      18   Parms: SMRP    MR      
 cg2d: Sum(rhs),rhsMax =   1.63087423155167E+03  1.38708304495674E+04
(PID.TID 0000.0001)      cg2d_init_res =   2.98576798986104E-02
(PID.TID 0000.0001)      cg2d_iters(min,last) =      -1      23
(PID.TID 0000.0001)      cg2d_last_res =   8.51932486381160E-13
(PID.TID 0000.0001) // =======================================================
(PID.TID 0000.0001) // Begin MONITOR dynamic field statistics
(PID.TID 0000.0001) // =======================================================
(PID.TID 0000.0001) %MON time_tsnumber                =                    19
(PID.TID 0000.0001) %MON time_secondsf                =   2.2800000000000E+04
(PID.TID 0000.0001) %MON dynstat_eta_max              =  -3.3494853380964E+02
(PID.TID 0000.0001) %MON dynstat_eta_min              =  -1.8997465434693E+04
(PID.TID 0000.0001) %MON dynstat_eta_mean             =  -6.4575937802320E+03
(PID.TID 0000.0001) %MON dynstat_eta_sd               =   5.5490189722072E+03
(PID.TID 0000.0001) %MON dynstat_eta_del2             =   8.2559644569404E-01
(PID.TID 0000.0001) %MON dynstat_uvel_max             =   3.8593490424256E+01
(PID.TID 0000.0001) %MON dynstat_uvel_min             =  -2.7542690967067E+01
(PID.TID 0000.0001) %MON dynstat_uvel_mean            =   1.1887063642211E+01
(PID.TID 0000.0001) %MON dynstat_uvel_sd              =   1.9206540091188E+01
(PID.TID 0000.0001) %MON dynstat_uvel_del2            =   1.5009789583067E-02
(PID.TID 0000.0001) %MON dynstat_vvel_max             =   3.8593490424256E+01
(PID.TID 0000.0001) %MON dynstat_vvel_min             =  -2.7542690967067E+01
(PID.TID 0000.0001) %MON dynstat_vvel_mean            =   1.1887063642211E+01
(PID.TID 0000.0001) %MON dynstat_vvel_sd              =   1.9206540091188E+01
(PID.TID 0000.0001) %MON dynstat_vvel_del2            =   1.5009789583067E-02
(PID.TID 0000.0001) %MON dynstat_wvel_max             =   7.2060767716446E-03
(PID.TID 0000.0001) %MON dynstat_wvel_min             =  -1.5831905578050E-02
(PID.TID 0000.0001) %MON dynstat_wvel_mean            =  -1.5689216583052E-17
(PID.TID 0000.0001) %MON dynstat_wvel_sd              =   7.0952519622578E-03
(PID.TID 0000.0001) %MON dynstat_wvel_del2            =   1.4284328584414E-06
(PID.TID 0000.0001) %MON dynstat_theta_max            =   3.0000000000000E+02
(PID.TID 0000.0001) %MON dynstat_theta_min            =   3.0000000000000E+02
(PID.TID 0000.0001) %MON dynstat_theta_mean           =   3.0000000000000E+02
(PID.TID 0000.0001) %MON dynstat_theta_sd             =   4.5474735088646E-13
(PID.TID 0000.0001) %MON dynstat_theta_del2           =   0.0000000000000E+00
(PID.TID 0000.0001) %MON dynstat_salt_max             =   9.7556810590929E-01
(PID.TID 0000.0001) %MON dynstat_salt_min             =  -2.6521383970751E-02
(PID.TID 0000.0001) %MON dynstat_salt_mean            =   6.6782773025940E-03
(PID.TID 0000.0001) %MON dynstat_salt_sd              =   6.1769957781316E-02
(PID.TID 0000.0001) %MON dynstat_salt_del2            =   1.5372782314950E-04
(PID.TID 0000.0001) %MON advcfl_uvel_max              =   3.5155755234019E-01
(PID.TID 0000.0001) %MON advcfl_vvel_max              =   3.5155755234019E-01
(PID.TID 0000.0001) %MON advcfl_wvel_max              =   3.7996573387319E-04
(PID.TID 0000.0001) %MON advcfl_W_hf_max              =   0.0000000000000E+00
(PID.TID 0000.0001) %MON am_eta_mean                  =  -7.9825092267777E+11
(PID.TID 0000.0001) %MON am_uZo_mean                  =   1.6934556222072E+12
(PID.TID 0000.0001) %MON am_tot_mean                  =   8.9520469952944E+11
(PID.TID 0000.0001) %MON pe_b_mean                    =   3.6246064492203E+02
(PID.TID 0000.0001) %MON ke_max                       =   7.4498363903213E+02
(PID.TID 0000.0001) %MON ke_mean                      =   5.1016597340109E+02
(PID.TID 0000.0001) %MON ke_vol                       =   5.0990436378078E+19
(PID.TID 0000.0001) %MON vort_r_min                   =  -1.2682255915184E-05
(PID.TID 0000.0001) %MON vort_r_max                   =   1.2682255915184E-05
(PID.TID 0000.0001) %MON vort_a_mean                  =   2.4513512206837E-21
(PID.TID 0000.0001) %MON vort_a_sd                    =   9.1062271841531E-05
(PID.TID 0000.0001) %MON vort_p_mean                  =   2.4513512206837E-21
(PID.TID 0000.0001) %MON vort_p_sd                    =   9.1062271841531E-05
(PID.TID 0000.0001) %MON surfExpan_theta_mean         =  -3.2481581207100E-15
(PID.TID 0000.0001) %MON surfExpan_salt_mean          =  -2.3587863800222E-05
(PID.TID 0000.0001) %MON surfExpan_Heat_mean          =  -2.1110872466492E-13
(PID.TID 0000.0001) %MON En_Budget_T2PE_mean          =   0.0000000000000E+00
(PID.TID 0000.0001) // =======================================================
(PID.TID 0000.0001) // End MONITOR dynamic field statistics
(PID.TID 0000.0001) // =======================================================
 Compute Stats, Diag. #     23  ETAN      vol(   0 ): 5.099E+14  Parms: SM      M1      
 Compute Stats, Diag. #    145  momKE     vol(   0 ): 5.099E+19  Parms: SMR     MR      
 Compute Stats, Diag. #     27  SALT      vol(   0 ): 5.099E+19  Parms: SMR     MR      
 Compute Stats, Diag. #     33  SALTSQ    vol(   0 ): 5.099E+19  Parms: SMRP    MR      
 cg2d: Sum(rhs),rhsMax =   1.62905366328569E+03  1.38863319608487E+04
(PID.TID 0000.0001)      cg2d_init_res =   4.03262479572463E-02
(PID.TID 0000.0001)      cg2d_iters(min,last) =      -1      23
(PID.TID 0000.0001)      cg2d_last_res =   9.92210286292941E-13
(PID.TID 0000.0001) // =======================================================
(PID.TID 0000.0001) // Begin MONITOR dynamic field statistics
(PID.TID 0000.0001) // =======================================================
(PID.TID 0000.0001) %MON time_tsnumber                =                    20
(PID.TID 0000.0001) %MON time_secondsf                =   2.4000000000000E+04
(PID.TID 0000.0001) %MON dynstat_eta_max              =  -3.2088980453467E+02
(PID.TID 0000.0001) %MON dynstat_eta_min              =  -1.9018804723457E+04
(PID.TID 0000.0001) %MON dynstat_eta_mean             =  -6.4575937802320E+03
(PID.TID 0000.0001) %MON dynstat_eta_sd               =   5.5604964266615E+03
(PID.TID 0000.0001) %MON dynstat_eta_del2             =   8.2719980844208E-01
(PID.TID 0000.0001) %MON dynstat_uvel_max             =   3.8593785023993E+01
(PID.TID 0000.0001) %MON dynstat_uvel_min             =  -2.7514952569648E+01
(PID.TID 0000.0001) %MON dynstat_uvel_mean            =   1.1882041714673E+01
(PID.TID 0000.0001) %MON dynstat_uvel_sd              =   1.9193816204949E+01
(PID.TID 0000.0001) %MON dynstat_uvel_del2            =   1.5003710862784E-02
(PID.TID 0000.0001) %MON dynstat_vvel_max             =   3.8593785023993E+01
(PID.TID 0000.0001) %MON dynstat_vvel_min             =  -2.7514952569648E+01
(PID.TID 0000.0001) %MON dynstat_vvel_mean            =   1.1882041714673E+01
(PID.TID 0000.0001) %MON dynstat_vvel_sd              =   1.9193816204949E+01
(PID.TID 0000.0001) %MON dynstat_vvel_del2            =   1.5003710862784E-02
(PID.TID 0000.0001) %MON dynstat_wvel_max             =   1.1720119443984E-02
(PID.TID 0000.0001) %MON dynstat_wvel_min             =  -1.7782740636944E-02
(PID.TID 0000.0001) %MON dynstat_wvel_mean            =   5.3343336382377E-18
(PID.TID 0000.0001) %MON dynstat_wvel_sd              =   9.6288665470377E-03
(PID.TID 0000.0001) %MON dynstat_wvel_del2            =   1.7567741911560E-06
(PID.TID 0000.0001) %MON dynstat_theta_max            =   3.0000000000000E+02
(PID.TID 0000.0001) %MON dynstat_theta_min            =   3.0000000000000E+02
(PID.TID 0000.0001) %MON dynstat_theta_mean           =   3.0000000000000E+02
(PID.TID 0000.0001) %MON dynstat_theta_sd             =   4.5474735088646E-13
(PID.TID 0000.0001) %MON dynstat_theta_del2           =   0.0000000000000E+00
(PID.TID 0000.0001) %MON dynstat_salt_max             =   9.8130806022614E-01
(PID.TID 0000.0001) %MON dynstat_salt_min             =  -2.7820006162230E-02
(PID.TID 0000.0001) %MON dynstat_salt_mean            =   6.6787009454150E-03
(PID.TID 0000.0001) %MON dynstat_salt_sd              =   6.1765476765752E-02
(PID.TID 0000.0001) %MON dynstat_salt_del2            =   1.5358535014180E-04
(PID.TID 0000.0001) %MON advcfl_uvel_max              =   3.5120810666054E-01
(PID.TID 0000.0001) %MON advcfl_vvel_max              =   3.5120810666054E-01
(PID.TID 0000.0001) %MON advcfl_wvel_max              =   4.2678577528666E-04
(PID.TID 0000.0001) %MON advcfl_W_hf_max              =   0.0000000000000E+00
(PID.TID 0000.0001) %MON am_eta_mean                  =  -7.9722234603694E+11
(PID.TID 0000.0001) %MON am_uZo_mean                  =   1.6926326573086E+12
(PID.TID 0000.0001) %MON am_tot_mean                  =   8.9541031127171E+11
(PID.TID 0000.0001) %MON pe_b_mean                    =   3.6309818970703E+02
(PID.TID 0000.0001) %MON ke_max                       =   7.4499170837045E+02
(PID.TID 0000.0001) %MON ke_mean                      =   5.0955808372948E+02
(PID.TID 0000.0001) %MON ke_vol                       =   5.0990436378078E+19
(PID.TID 0000.0001) %MON vort_r_min                   =  -1.2649159602782E-05
(PID.TID 0000.0001) %MON vort_r_max                   =   1.2649159602782E-05
(PID.TID 0000.0001) %MON vort_a_mean                  =  -4.9027024413674E-21
(PID.TID 0000.0001) %MON vort_a_sd                    =   9.1057975313872E-05
(PID.TID 0000.0001) %MON vort_p_mean                  =  -4.9027024413674E-21
(PID.TID 0000.0001) %MON vort_p_sd                    =   9.1057975313872E-05
(PID.TID 0000.0001) %MON surfExpan_theta_mean         =   1.5934360592162E-15
(PID.TID 0000.0001) %MON surfExpan_salt_mean          =  -4.2278604088073E-05
(PID.TID 0000.0001) %MON surfExpan_Heat_mean          =   1.9831425650341E-13
(PID.TID 0000.0001) %MON En_Budget_T2PE_mean          =   0.0000000000000E+00
(PID.TID 0000.0001) // =======================================================
(PID.TID 0000.0001) // End MONITOR dynamic field statistics
(PID.TID 0000.0001) // =======================================================
(PID.TID 0000.0001) DIAGSTATS_CLOSE_IO: close file: dynStDiag.0000000000.txt , unit=     9
(PID.TID 0000.0001) %CHECKPOINT        20 ckptA
(PID.TID 0000.0001)   Seconds in section "ALL                    [THE_MODEL_MAIN]":
(PID.TID 0000.0001)           User time:   1.0300000000000000
(PID.TID 0000.0001)         System time:  2.00000000000000004E-002
(PID.TID 0000.0001)     Wall clock time:   1.0828549861907959
(PID.TID 0000.0001)          No. starts:           1
(PID.TID 0000.0001)           No. stops:           1
(PID.TID 0000.0001)   Seconds in section "INITIALISE_FIXED       [THE_MODEL_MAIN]":
(PID.TID 0000.0001)           User time:  5.99999999999999978E-002
(PID.TID 0000.0001)         System time:  1.00000000000000002E-002
(PID.TID 0000.0001)     Wall clock time:  0.10475707054138184
(PID.TID 0000.0001)          No. starts:           1
(PID.TID 0000.0001)           No. stops:           1
(PID.TID 0000.0001)   Seconds in section "THE_MAIN_LOOP          [THE_MODEL_MAIN]":
(PID.TID 0000.0001)           User time:  0.96999999999999997
(PID.TID 0000.0001)         System time:  1.00000000000000002E-002
(PID.TID 0000.0001)     Wall clock time:  0.97806096076965332
(PID.TID 0000.0001)          No. starts:           1
(PID.TID 0000.0001)           No. stops:           1
(PID.TID 0000.0001)   Seconds in section "INITIALISE_VARIA    [THE_MAIN_LOOP]":
(PID.TID 0000.0001)           User time:  2.99999999999999989E-002
(PID.TID 0000.0001)         System time:   0.0000000000000000
(PID.TID 0000.0001)     Wall clock time:  2.94778347015380859E-002
(PID.TID 0000.0001)          No. starts:           1
(PID.TID 0000.0001)           No. stops:           1
(PID.TID 0000.0001)   Seconds in section "MAIN LOOP           [THE_MAIN_LOOP]":
(PID.TID 0000.0001)           User time:  0.94000000000000006
(PID.TID 0000.0001)         System time:  1.00000000000000002E-002
(PID.TID 0000.0001)     Wall clock time:  0.94855594635009766
(PID.TID 0000.0001)          No. starts:           1
(PID.TID 0000.0001)           No. stops:           1
(PID.TID 0000.0001)   Seconds in section "MAIN_DO_LOOP        [THE_MAIN_LOOP]":
(PID.TID 0000.0001)           User time:  0.93999999999999995
(PID.TID 0000.0001)         System time:  9.99999999999999847E-003
(PID.TID 0000.0001)     Wall clock time:  0.94837689399719238
(PID.TID 0000.0001)          No. starts:          20
(PID.TID 0000.0001)           No. stops:          20
(PID.TID 0000.0001)   Seconds in section "FORWARD_STEP        [MAIN_DO_LOOP]":
(PID.TID 0000.0001)           User time:  0.93999999999999995
(PID.TID 0000.0001)         System time:  9.99999999999999847E-003
(PID.TID 0000.0001)     Wall clock time:  0.94803476333618164
(PID.TID 0000.0001)          No. starts:          20
(PID.TID 0000.0001)           No. stops:          20
(PID.TID 0000.0001)   Seconds in section "DO_STATEVARS_DIAGS  [FORWARD_STEP]":
(PID.TID 0000.0001)           User time:  1.00000000000000089E-002
(PID.TID 0000.0001)         System time:   0.0000000000000000
(PID.TID 0000.0001)     Wall clock time:  4.38237190246582031E-003
(PID.TID 0000.0001)          No. starts:          40
(PID.TID 0000.0001)           No. stops:          40
(PID.TID 0000.0001)   Seconds in section "LOAD_FIELDS_DRIVER  [FORWARD_STEP]":
(PID.TID 0000.0001)           User time:   0.0000000000000000
(PID.TID 0000.0001)         System time:   0.0000000000000000
(PID.TID 0000.0001)     Wall clock time:  5.13315200805664063E-004
(PID.TID 0000.0001)          No. starts:          20
(PID.TID 0000.0001)           No. stops:          20
(PID.TID 0000.0001)   Seconds in section "EXTERNAL_FLDS_LOAD [LOAD_FLDS_DRIVER]":
(PID.TID 0000.0001)           User time:   0.0000000000000000
(PID.TID 0000.0001)         System time:   0.0000000000000000
(PID.TID 0000.0001)     Wall clock time:  1.76906585693359375E-004
(PID.TID 0000.0001)          No. starts:          20
(PID.TID 0000.0001)           No. stops:          20
(PID.TID 0000.0001)   Seconds in section "DO_ATMOSPHERIC_PHYS [FORWARD_STEP]":
(PID.TID 0000.0001)           User time:   0.0000000000000000
(PID.TID 0000.0001)         System time:   0.0000000000000000
(PID.TID 0000.0001)     Wall clock time:  1.69515609741210938E-004
(PID.TID 0000.0001)          No. starts:          20
(PID.TID 0000.0001)           No. stops:          20
(PID.TID 0000.0001)   Seconds in section "DO_OCEANIC_PHYS     [FORWARD_STEP]":
(PID.TID 0000.0001)           User time:   0.0000000000000000
(PID.TID 0000.0001)         System time:   0.0000000000000000
(PID.TID 0000.0001)     Wall clock time:  2.04086303710937500E-004
(PID.TID 0000.0001)          No. starts:          20
(PID.TID 0000.0001)           No. stops:          20
(PID.TID 0000.0001)   Seconds in section "THERMODYNAMICS      [FORWARD_STEP]":
(PID.TID 0000.0001)           User time:  3.00000000000000266E-002
(PID.TID 0000.0001)         System time:   0.0000000000000000
(PID.TID 0000.0001)     Wall clock time:  5.25107383728027344E-002
(PID.TID 0000.0001)          No. starts:          20
(PID.TID 0000.0001)           No. stops:          20
(PID.TID 0000.0001)   Seconds in section "DYNAMICS            [FORWARD_STEP]":
(PID.TID 0000.0001)           User time:  0.18000000000000016
(PID.TID 0000.0001)         System time:   0.0000000000000000
(PID.TID 0000.0001)     Wall clock time:  0.19114279747009277
(PID.TID 0000.0001)          No. starts:          20
(PID.TID 0000.0001)           No. stops:          20
(PID.TID 0000.0001)   Seconds in section "SOLVE_FOR_PRESSURE  [FORWARD_STEP]":
(PID.TID 0000.0001)           User time:  0.47000000000000042
(PID.TID 0000.0001)         System time:   0.0000000000000000
(PID.TID 0000.0001)     Wall clock time:  0.46886992454528809
(PID.TID 0000.0001)          No. starts:          20
(PID.TID 0000.0001)           No. stops:          20
(PID.TID 0000.0001)   Seconds in section "MOM_CORRECTION_STEP [FORWARD_STEP]":
(PID.TID 0000.0001)           User time:  4.00000000000000355E-002
(PID.TID 0000.0001)         System time:   0.0000000000000000
(PID.TID 0000.0001)     Wall clock time:  1.40538215637207031E-002
(PID.TID 0000.0001)          No. starts:          20
(PID.TID 0000.0001)           No. stops:          20
(PID.TID 0000.0001)   Seconds in section "INTEGR_CONTINUITY   [FORWARD_STEP]":
(PID.TID 0000.0001)           User time:  1.00000000000000089E-002
(PID.TID 0000.0001)         System time:   0.0000000000000000
(PID.TID 0000.0001)     Wall clock time:  9.51814651489257813E-003
(PID.TID 0000.0001)          No. starts:          20
(PID.TID 0000.0001)           No. stops:          20
(PID.TID 0000.0001)   Seconds in section "TRC_CORRECTION_STEP [FORWARD_STEP]":
(PID.TID 0000.0001)           User time:   0.0000000000000000
(PID.TID 0000.0001)         System time:   0.0000000000000000
(PID.TID 0000.0001)     Wall clock time:  1.93119049072265625E-003
(PID.TID 0000.0001)          No. starts:          20
(PID.TID 0000.0001)           No. stops:          20
(PID.TID 0000.0001)   Seconds in section "BLOCKING_EXCHANGES  [FORWARD_STEP]":
(PID.TID 0000.0001)           User time:   0.0000000000000000
(PID.TID 0000.0001)         System time:   0.0000000000000000
(PID.TID 0000.0001)     Wall clock time:  1.02336406707763672E-002
(PID.TID 0000.0001)          No. starts:          20
(PID.TID 0000.0001)           No. stops:          20
(PID.TID 0000.0001)   Seconds in section "MONITOR             [FORWARD_STEP]":
(PID.TID 0000.0001)           User time:  0.18999999999999995
(PID.TID 0000.0001)         System time:  9.99999999999999847E-003
(PID.TID 0000.0001)     Wall clock time:  0.17843651771545410
(PID.TID 0000.0001)          No. starts:          20
(PID.TID 0000.0001)           No. stops:          20
(PID.TID 0000.0001)   Seconds in section "DO_THE_MODEL_IO     [FORWARD_STEP]":
(PID.TID 0000.0001)           User time:   0.0000000000000000
(PID.TID 0000.0001)         System time:   0.0000000000000000
(PID.TID 0000.0001)     Wall clock time:  8.03494453430175781E-003
(PID.TID 0000.0001)          No. starts:          20
(PID.TID 0000.0001)           No. stops:          20
(PID.TID 0000.0001)   Seconds in section "DO_WRITE_PICKUP     [FORWARD_STEP]":
(PID.TID 0000.0001)           User time:  1.00000000000000089E-002
(PID.TID 0000.0001)         System time:   0.0000000000000000
(PID.TID 0000.0001)     Wall clock time:  5.22398948669433594E-003
(PID.TID 0000.0001)          No. starts:          20
(PID.TID 0000.0001)           No. stops:          20
(PID.TID 0000.0001) // ======================================================
(PID.TID 0000.0001) // Tile <-> Tile communication statistics
(PID.TID 0000.0001) // ======================================================
(PID.TID 0000.0001) // o Tile number: 000001
(PID.TID 0000.0001) //         No. X exchanges =              0
(PID.TID 0000.0001) //            Max. X spins =              0
(PID.TID 0000.0001) //            Min. X spins =     1000000000
(PID.TID 0000.0001) //          Total. X spins =              0
(PID.TID 0000.0001) //            Avg. X spins =       0.00E+00
(PID.TID 0000.0001) //         No. Y exchanges =              0
(PID.TID 0000.0001) //            Max. Y spins =              0
(PID.TID 0000.0001) //            Min. Y spins =     1000000000
(PID.TID 0000.0001) //          Total. Y spins =              0
(PID.TID 0000.0001) //            Avg. Y spins =       0.00E+00
(PID.TID 0000.0001) // o Tile number: 000002
(PID.TID 0000.0001) //         No. X exchanges =              0
(PID.TID 0000.0001) //            Max. X spins =              0
(PID.TID 0000.0001) //            Min. X spins =     1000000000
(PID.TID 0000.0001) //          Total. X spins =              0
(PID.TID 0000.0001) //            Avg. X spins =       0.00E+00
(PID.TID 0000.0001) //         No. Y exchanges =              0
(PID.TID 0000.0001) //            Max. Y spins =              0
(PID.TID 0000.0001) //            Min. Y spins =     1000000000
(PID.TID 0000.0001) //          Total. Y spins =              0
(PID.TID 0000.0001) //            Avg. Y spins =       0.00E+00
(PID.TID 0000.0001) // o Tile number: 000003
(PID.TID 0000.0001) //         No. X exchanges =              0
(PID.TID 0000.0001) //            Max. X spins =              0
(PID.TID 0000.0001) //            Min. X spins =     1000000000
(PID.TID 0000.0001) //          Total. X spins =              0
(PID.TID 0000.0001) //            Avg. X spins =       0.00E+00
(PID.TID 0000.0001) //         No. Y exchanges =              0
(PID.TID 0000.0001) //            Max. Y spins =              0
(PID.TID 0000.0001) //            Min. Y spins =     1000000000
(PID.TID 0000.0001) //          Total. Y spins =              0
(PID.TID 0000.0001) //            Avg. Y spins =       0.00E+00
(PID.TID 0000.0001) // o Tile number: 000004
(PID.TID 0000.0001) //         No. X exchanges =              0
(PID.TID 0000.0001) //            Max. X spins =              0
(PID.TID 0000.0001) //            Min. X spins =     1000000000
(PID.TID 0000.0001) //          Total. X spins =              0
(PID.TID 0000.0001) //            Avg. X spins =       0.00E+00
(PID.TID 0000.0001) //         No. Y exchanges =              0
(PID.TID 0000.0001) //            Max. Y spins =              0
(PID.TID 0000.0001) //            Min. Y spins =     1000000000
(PID.TID 0000.0001) //          Total. Y spins =              0
(PID.TID 0000.0001) //            Avg. Y spins =       0.00E+00
(PID.TID 0000.0001) // o Tile number: 000005
(PID.TID 0000.0001) //         No. X exchanges =              0
(PID.TID 0000.0001) //            Max. X spins =              0
(PID.TID 0000.0001) //            Min. X spins =     1000000000
(PID.TID 0000.0001) //          Total. X spins =              0
(PID.TID 0000.0001) //            Avg. X spins =       0.00E+00
(PID.TID 0000.0001) //         No. Y exchanges =              0
(PID.TID 0000.0001) //            Max. Y spins =              0
(PID.TID 0000.0001) //            Min. Y spins =     1000000000
(PID.TID 0000.0001) //          Total. Y spins =              0
(PID.TID 0000.0001) //            Avg. Y spins =       0.00E+00
(PID.TID 0000.0001) // o Tile number: 000006
(PID.TID 0000.0001) //         No. X exchanges =              0
(PID.TID 0000.0001) //            Max. X spins =              0
(PID.TID 0000.0001) //            Min. X spins =     1000000000
(PID.TID 0000.0001) //          Total. X spins =              0
(PID.TID 0000.0001) //            Avg. X spins =       0.00E+00
(PID.TID 0000.0001) //         No. Y exchanges =              0
(PID.TID 0000.0001) //            Max. Y spins =              0
(PID.TID 0000.0001) //            Min. Y spins =     1000000000
(PID.TID 0000.0001) //          Total. Y spins =              0
(PID.TID 0000.0001) //            Avg. Y spins =       0.00E+00
(PID.TID 0000.0001) // o Thread number: 000001
(PID.TID 0000.0001) //            No. barriers =           8888
(PID.TID 0000.0001) //      Max. barrier spins =              1
(PID.TID 0000.0001) //      Min. barrier spins =              1
(PID.TID 0000.0001) //     Total barrier spins =           8888
(PID.TID 0000.0001) //      Avg. barrier spins =       1.00E+00
PROGRAM MAIN: Execution ended Normally
