(PID.TID 0000.0001) 
(PID.TID 0000.0001) // ======================================================
(PID.TID 0000.0001) //                      MITgcm UV
(PID.TID 0000.0001) //                      =========
(PID.TID 0000.0001) // ======================================================
(PID.TID 0000.0001) // execution environment starting up...
(PID.TID 0000.0001) 
(PID.TID 0000.0001) // MITgcmUV version:  checkpoint66f
(PID.TID 0000.0001) // Build user:        jmc
(PID.TID 0000.0001) // Build host:        baudelaire
(PID.TID 0000.0001) // Build date:        Tue Apr 11 13:31:43 EDT 2017
(PID.TID 0000.0001) 
(PID.TID 0000.0001) // =======================================================
(PID.TID 0000.0001) // Execution Environment parameter file "eedata"
(PID.TID 0000.0001) // =======================================================
(PID.TID 0000.0001) ># Example "eedata" file
(PID.TID 0000.0001) ># Lines beginning "#" are comments
(PID.TID 0000.0001) ># nTx - No. threads per process in X
(PID.TID 0000.0001) ># nTy - No. threads per process in Y
(PID.TID 0000.0001) > &EEPARMS
(PID.TID 0000.0001) > /
(PID.TID 0000.0001) ># Note: Some systems use & as the
(PID.TID 0000.0001) ># namelist terminator. Other systems
(PID.TID 0000.0001) ># use a / character (as shown here).
(PID.TID 0000.0001) 
(PID.TID 0000.0001) // =======================================================
(PID.TID 0000.0001) // Computational Grid Specification ( see files "SIZE.h" )
(PID.TID 0000.0001) //                                  ( and "eedata"       )
(PID.TID 0000.0001) // =======================================================
(PID.TID 0000.0001)      nPx =    1 ; /* No. processes in X */
(PID.TID 0000.0001)      nPy =    1 ; /* No. processes in Y */
(PID.TID 0000.0001)      nSx =    2 ; /* No. tiles in X per process */
(PID.TID 0000.0001)      nSy =    4 ; /* No. tiles in Y per process */
(PID.TID 0000.0001)      sNx =   25 ; /* Tile size in X */
(PID.TID 0000.0001)      sNy =   25 ; /* Tile size in Y */
(PID.TID 0000.0001)      OLx =    3 ; /* Tile overlap distance in X */
(PID.TID 0000.0001)      OLy =    3 ; /* Tile overlap distance in Y */
(PID.TID 0000.0001)      nTx =    1 ; /* No. threads in X per process */
(PID.TID 0000.0001)      nTy =    1 ; /* No. threads in Y per process */
(PID.TID 0000.0001)       Nr =   30 ; /* No. levels in the vertical   */
(PID.TID 0000.0001)       Nx =   50 ; /* Total domain size in X ( = nPx*nSx*sNx ) */
(PID.TID 0000.0001)       Ny =  100 ; /* Total domain size in Y ( = nPy*nSy*sNy ) */
(PID.TID 0000.0001)   nTiles =    8 ; /* Total no. tiles per process ( = nSx*nSy ) */
(PID.TID 0000.0001)   nProcs =    1 ; /* Total no. processes ( = nPx*nPy ) */
(PID.TID 0000.0001) nThreads =    1 ; /* Total no. threads per process ( = nTx*nTy ) */
(PID.TID 0000.0001) usingMPI =    F ; /* Flag used to control whether MPI is in use */
(PID.TID 0000.0001)                   /*  note: To execute a program with MPI calls */
(PID.TID 0000.0001)                   /*  it must be launched appropriately e.g     */
(PID.TID 0000.0001)                   /*  "mpirun -np 64 ......"                    */
(PID.TID 0000.0001) useCoupler=    F ;/* Flag used to control communications with   */
(PID.TID 0000.0001)                   /*  other model components, through a coupler */
(PID.TID 0000.0001) debugMode =    F ; /* print debug msg. (sequence of S/R calls)  */
(PID.TID 0000.0001) printMapIncludesZeros=    F ; /* print zeros in Std.Output maps */
(PID.TID 0000.0001) maxLengthPrt1D=   65 /* maxLength of 1D array printed to StdOut */
(PID.TID 0000.0001) 
(PID.TID 0000.0001) // ======================================================
(PID.TID 0000.0001) // Mapping of tiles to threads
(PID.TID 0000.0001) // ======================================================
(PID.TID 0000.0001) // -o- Thread   1, tiles (   1:   2,   1:   4)
(PID.TID 0000.0001) 
(PID.TID 0000.0001) // ======================================================
(PID.TID 0000.0001) // Tile <-> Tile connectvity table
(PID.TID 0000.0001) // ======================================================
(PID.TID 0000.0001) // Tile number: 000001 (process no. = 000000)
(PID.TID 0000.0001) //        WEST: Tile = 000002, Process = 000000, Comm = put
(PID.TID 0000.0001) //                bi = 000002, bj = 000001
(PID.TID 0000.0001) //        EAST: Tile = 000002, Process = 000000, Comm = put
(PID.TID 0000.0001) //                bi = 000002, bj = 000001
(PID.TID 0000.0001) //       SOUTH: Tile = 000007, Process = 000000, Comm = put
(PID.TID 0000.0001) //                bi = 000001, bj = 000004
(PID.TID 0000.0001) //       NORTH: Tile = 000003, Process = 000000, Comm = put
(PID.TID 0000.0001) //                bi = 000001, bj = 000002
(PID.TID 0000.0001) // Tile number: 000002 (process no. = 000000)
(PID.TID 0000.0001) //        WEST: Tile = 000001, Process = 000000, Comm = put
(PID.TID 0000.0001) //                bi = 000001, bj = 000001
(PID.TID 0000.0001) //        EAST: Tile = 000001, Process = 000000, Comm = put
(PID.TID 0000.0001) //                bi = 000001, bj = 000001
(PID.TID 0000.0001) //       SOUTH: Tile = 000008, Process = 000000, Comm = put
(PID.TID 0000.0001) //                bi = 000002, bj = 000004
(PID.TID 0000.0001) //       NORTH: Tile = 000004, Process = 000000, Comm = put
(PID.TID 0000.0001) //                bi = 000002, bj = 000002
(PID.TID 0000.0001) // Tile number: 000003 (process no. = 000000)
(PID.TID 0000.0001) //        WEST: Tile = 000004, Process = 000000, Comm = put
(PID.TID 0000.0001) //                bi = 000002, bj = 000002
(PID.TID 0000.0001) //        EAST: Tile = 000004, Process = 000000, Comm = put
(PID.TID 0000.0001) //                bi = 000002, bj = 000002
(PID.TID 0000.0001) //       SOUTH: Tile = 000001, Process = 000000, Comm = put
(PID.TID 0000.0001) //                bi = 000001, bj = 000001
(PID.TID 0000.0001) //       NORTH: Tile = 000005, Process = 000000, Comm = put
(PID.TID 0000.0001) //                bi = 000001, bj = 000003
(PID.TID 0000.0001) // Tile number: 000004 (process no. = 000000)
(PID.TID 0000.0001) //        WEST: Tile = 000003, Process = 000000, Comm = put
(PID.TID 0000.0001) //                bi = 000001, bj = 000002
(PID.TID 0000.0001) //        EAST: Tile = 000003, Process = 000000, Comm = put
(PID.TID 0000.0001) //                bi = 000001, bj = 000002
(PID.TID 0000.0001) //       SOUTH: Tile = 000002, Process = 000000, Comm = put
(PID.TID 0000.0001) //                bi = 000002, bj = 000001
(PID.TID 0000.0001) //       NORTH: Tile = 000006, Process = 000000, Comm = put
(PID.TID 0000.0001) //                bi = 000002, bj = 000003
(PID.TID 0000.0001) // Tile number: 000005 (process no. = 000000)
(PID.TID 0000.0001) //        WEST: Tile = 000006, Process = 000000, Comm = put
(PID.TID 0000.0001) //                bi = 000002, bj = 000003
(PID.TID 0000.0001) //        EAST: Tile = 000006, Process = 000000, Comm = put
(PID.TID 0000.0001) //                bi = 000002, bj = 000003
(PID.TID 0000.0001) //       SOUTH: Tile = 000003, Process = 000000, Comm = put
(PID.TID 0000.0001) //                bi = 000001, bj = 000002
(PID.TID 0000.0001) //       NORTH: Tile = 000007, Process = 000000, Comm = put
(PID.TID 0000.0001) //                bi = 000001, bj = 000004
(PID.TID 0000.0001) // Tile number: 000006 (process no. = 000000)
(PID.TID 0000.0001) //        WEST: Tile = 000005, Process = 000000, Comm = put
(PID.TID 0000.0001) //                bi = 000001, bj = 000003
(PID.TID 0000.0001) //        EAST: Tile = 000005, Process = 000000, Comm = put
(PID.TID 0000.0001) //                bi = 000001, bj = 000003
(PID.TID 0000.0001) //       SOUTH: Tile = 000004, Process = 000000, Comm = put
(PID.TID 0000.0001) //                bi = 000002, bj = 000002
(PID.TID 0000.0001) //       NORTH: Tile = 000008, Process = 000000, Comm = put
(PID.TID 0000.0001) //                bi = 000002, bj = 000004
(PID.TID 0000.0001) // Tile number: 000007 (process no. = 000000)
(PID.TID 0000.0001) //        WEST: Tile = 000008, Process = 000000, Comm = put
(PID.TID 0000.0001) //                bi = 000002, bj = 000004
(PID.TID 0000.0001) //        EAST: Tile = 000008, Process = 000000, Comm = put
(PID.TID 0000.0001) //                bi = 000002, bj = 000004
(PID.TID 0000.0001) //       SOUTH: Tile = 000005, Process = 000000, Comm = put
(PID.TID 0000.0001) //                bi = 000001, bj = 000003
(PID.TID 0000.0001) //       NORTH: Tile = 000001, Process = 000000, Comm = put
(PID.TID 0000.0001) //                bi = 000001, bj = 000001
(PID.TID 0000.0001) // Tile number: 000008 (process no. = 000000)
(PID.TID 0000.0001) //        WEST: Tile = 000007, Process = 000000, Comm = put
(PID.TID 0000.0001) //                bi = 000001, bj = 000004
(PID.TID 0000.0001) //        EAST: Tile = 000007, Process = 000000, Comm = put
(PID.TID 0000.0001) //                bi = 000001, bj = 000004
(PID.TID 0000.0001) //       SOUTH: Tile = 000006, Process = 000000, Comm = put
(PID.TID 0000.0001) //                bi = 000002, bj = 000003
(PID.TID 0000.0001) //       NORTH: Tile = 000002, Process = 000000, Comm = put
(PID.TID 0000.0001) //                bi = 000002, bj = 000001
(PID.TID 0000.0001) 
(PID.TID 0000.0001)  INI_PARMS: opening model parameter file "data"
(PID.TID 0000.0001)  OPEN_COPY_DATA_FILE: opening file data
(PID.TID 0000.0001) // =======================================================
(PID.TID 0000.0001) // Parameter file "data"
(PID.TID 0000.0001) // =======================================================
(PID.TID 0000.0001) ># ====================
(PID.TID 0000.0001) ># | Model parameters |
(PID.TID 0000.0001) ># ====================
(PID.TID 0000.0001) >#
(PID.TID 0000.0001) ># Continuous equation parameters
(PID.TID 0000.0001) > &PARM01
(PID.TID 0000.0001) > Tref = 30*-1.9,
(PID.TID 0000.0001) > Sref = 30*34.4,
(PID.TID 0000.0001) > viscAz=1.E-3,
(PID.TID 0000.0001) > viscAh=600.0,
(PID.TID 0000.0001) > no_slip_sides=.FALSE.,
(PID.TID 0000.0001) > no_slip_bottom=.FALSE.,
(PID.TID 0000.0001) > diffKhT=100.0,
(PID.TID 0000.0001) > diffKzT=5.E-5,
(PID.TID 0000.0001) > diffKhS=100.0,
(PID.TID 0000.0001) > diffKzS=5.E-5,
(PID.TID 0000.0001) > bottomDragQuadratic=2.5E-3,
(PID.TID 0000.0001) > eosType='JMD95Z',
(PID.TID 0000.0001) > HeatCapacity_cp = 3974.0,
(PID.TID 0000.0001) > rhoConst=1030.,
(PID.TID 0000.0001) > rhoNil=1030.,
(PID.TID 0000.0001) > gravity=9.81,
(PID.TID 0000.0001) > convertFW2Salt = 33.4,
(PID.TID 0000.0001) > rigidLid=.FALSE.,
(PID.TID 0000.0001) > implicitFreeSurface=.TRUE.,
(PID.TID 0000.0001) > exactConserv=.TRUE.,
(PID.TID 0000.0001) > hFacMin=0.05,
(PID.TID 0000.0001) > nonHydrostatic=.FALSE.,
(PID.TID 0000.0001) > readBinaryPrec=64,
(PID.TID 0000.0001) > useCDScheme = .TRUE.,
(PID.TID 0000.0001) > /
(PID.TID 0000.0001) >
(PID.TID 0000.0001) ># Elliptic solver parameters
(PID.TID 0000.0001) > &PARM02
(PID.TID 0000.0001) > cg2dMaxIters=1000,
(PID.TID 0000.0001) > cg2dTargetResidual=1.E-13,
(PID.TID 0000.0001) > cg3dMaxIters=400,
(PID.TID 0000.0001) > cg3dTargetResidual=1.E-13,
(PID.TID 0000.0001) > /
(PID.TID 0000.0001) >
(PID.TID 0000.0001) ># Time stepping parameters
(PID.TID 0000.0001) > &PARM03
(PID.TID 0000.0001) > nIter0=0,
(PID.TID 0000.0001) > nTimeSteps=20,
(PID.TID 0000.0001) > deltaT=1800.0,
(PID.TID 0000.0001) > abEps=0.1,
(PID.TID 0000.0001) > cAdjFreq = -1.,
(PID.TID 0000.0001) > tauCD = 400000.,
(PID.TID 0000.0001) > pChkptFreq=0.0,
(PID.TID 0000.0001) > chkptFreq=0.0,
(PID.TID 0000.0001) > dumpFreq=0.0,
(PID.TID 0000.0001) > taveFreq=0.0,
(PID.TID 0000.0001) > monitorFreq=1.,
(PID.TID 0000.0001) > monitorSelect=2,
(PID.TID 0000.0001) > /
(PID.TID 0000.0001) >
(PID.TID 0000.0001) ># Gridding parameters
(PID.TID 0000.0001) > &PARM04
(PID.TID 0000.0001) > usingSphericalPolarGrid=.TRUE.,
(PID.TID 0000.0001) > ygOrigin = -80.0,
(PID.TID 0000.0001) > delX=50*0.3,
(PID.TID 0000.0001) > delY=100*0.1,
(PID.TID 0000.0001) > delZ=30*30.0,
(PID.TID 0000.0001) > /
(PID.TID 0000.0001) >
(PID.TID 0000.0001) ># Input datasets
(PID.TID 0000.0001) > &PARM05
(PID.TID 0000.0001) > bathyFile='bathy.box',
(PID.TID 0000.0001) > /
(PID.TID 0000.0001) 
(PID.TID 0000.0001)  INI_PARMS ; starts to read PARM01
(PID.TID 0000.0001)  INI_PARMS ; read PARM01 : OK
(PID.TID 0000.0001)  INI_PARMS ; starts to read PARM02
(PID.TID 0000.0001)  INI_PARMS ; read PARM02 : OK
(PID.TID 0000.0001)  INI_PARMS ; starts to read PARM03
(PID.TID 0000.0001)  INI_PARMS ; read PARM03 : OK
(PID.TID 0000.0001)  INI_PARMS ; starts to read PARM04
(PID.TID 0000.0001)  INI_PARMS ; read PARM04 : OK
(PID.TID 0000.0001)  INI_PARMS ; starts to read PARM05
(PID.TID 0000.0001)  INI_PARMS ; read PARM05 : OK
(PID.TID 0000.0001)  INI_PARMS: finished reading file "data"
(PID.TID 0000.0001)  PACKAGES_BOOT: opening data.pkg
(PID.TID 0000.0001)  OPEN_COPY_DATA_FILE: opening file data.pkg
(PID.TID 0000.0001) // =======================================================
(PID.TID 0000.0001) // Parameter file "data.pkg"
(PID.TID 0000.0001) // =======================================================
(PID.TID 0000.0001) ># Packages
(PID.TID 0000.0001) > &PACKAGES
(PID.TID 0000.0001) > useShelfIce=.TRUE.,
(PID.TID 0000.0001) >#useDiagnostics=.TRUE.,
(PID.TID 0000.0001) >#useMNC=.TRUE.,
(PID.TID 0000.0001) > /
(PID.TID 0000.0001) 
(PID.TID 0000.0001)  PACKAGES_BOOT: finished reading data.pkg
(PID.TID 0000.0001)  PACKAGES_BOOT: On/Off package Summary
 --------  pkgs with a standard "usePKG" On/Off switch in "data.pkg":  --------
 pkg/kpp                  compiled but not used ( useKPP                   = F )
 pkg/shelfice             compiled   and   used ( useShelfIce              = T )
 pkg/icefront             compiled but not used ( useICEFRONT              = F )
 pkg/diagnostics          compiled but not used ( useDiagnostics           = F )
 pkg/mnc                  compiled but not used ( useMNC                   = F )
 -------- pkgs without standard "usePKG" On/Off switch in "data.pkg":  --------
 pkg/generic_advdiff      compiled   and   used ( useGAD                   = T )
 pkg/mom_common           compiled   and   used ( momStepping              = T )
 pkg/mom_vecinv           compiled but not used ( +vectorInvariantMomentum = F )
 pkg/mom_fluxform         compiled   and   used ( & not vectorInvariantMom = T )
 pkg/cd_code              compiled   and   used ( useCDscheme              = T )
 pkg/monitor              compiled   and   used ( monitorFreq > 0.         = T )
 pkg/timeave              compiled but not used ( taveFreq > 0.            = F )
 pkg/debug                compiled but not used ( debugMode                = F )
 pkg/rw                   compiled   and   used
 pkg/mdsio                compiled   and   used
(PID.TID 0000.0001)  PACKAGES_BOOT: End of package Summary
(PID.TID 0000.0001) 
(PID.TID 0000.0001)  SHELFICE_READPARMS: opening data.shelfice
(PID.TID 0000.0001)  OPEN_COPY_DATA_FILE: opening file data.shelfice
(PID.TID 0000.0001) // =======================================================
(PID.TID 0000.0001) // Parameter file "data.shelfice"
(PID.TID 0000.0001) // =======================================================
(PID.TID 0000.0001) ># ===================================
(PID.TID 0000.0001) ># | Parameters for SHELFICE package |
(PID.TID 0000.0001) ># ===================================
(PID.TID 0000.0001) > &SHELFICE_PARM01
(PID.TID 0000.0001) > SHELFICEboundaryLayer = .TRUE.,
(PID.TID 0000.0001) > SHELFICEtopoFile='icetopo.exp1',
(PID.TID 0000.0001) > SHELFICEloadAnomalyFile = 'phi0surf.exp1.jmd95z',
(PID.TID 0000.0001) > useISOMIPTD = .TRUE.,
(PID.TID 0000.0001) > SHELFICEuseGammaFrict = .FALSE.,
(PID.TID 0000.0001) > no_slip_shelfice = .false.,
(PID.TID 0000.0001) > SHELFICEwriteState = .TRUE.,
(PID.TID 0000.0001) > /
(PID.TID 0000.0001) 
(PID.TID 0000.0001)  SHELFICE_READPARMS: finished reading data.shelfice
(PID.TID 0000.0001) SET_PARMS: done
(PID.TID 0000.0001) Enter INI_VERTICAL_GRID: setInterFDr=    T ; setCenterDr=    F
(PID.TID 0000.0001) %MON XC_max                       =   1.4850000000000E+01
(PID.TID 0000.0001) %MON XC_min                       =   1.5000000000000E-01
(PID.TID 0000.0001) %MON XC_mean                      =   7.5000000000000E+00
(PID.TID 0000.0001) %MON XC_sd                        =   4.3292609068985E+00
(PID.TID 0000.0001) %MON XG_max                       =   1.4700000000000E+01
(PID.TID 0000.0001) %MON XG_min                       =   1.1102230246252E-16
(PID.TID 0000.0001) %MON XG_mean                      =   7.3500000000000E+00
(PID.TID 0000.0001) %MON XG_sd                        =   4.3292609068985E+00
(PID.TID 0000.0001) %MON DXC_max                      =   1.1380125394806E+04
(PID.TID 0000.0001) %MON DXC_min                      =   5.8203914905589E+03
(PID.TID 0000.0001) %MON DXC_mean                     =   8.6215028627207E+03
(PID.TID 0000.0001) %MON DXC_sd                       =   1.6219001271572E+03
(PID.TID 0000.0001) %MON DXF_max                      =   1.1380125394806E+04
(PID.TID 0000.0001) %MON DXF_min                      =   5.8203914905589E+03
(PID.TID 0000.0001) %MON DXF_mean                     =   8.6215028627207E+03
(PID.TID 0000.0001) %MON DXF_sd                       =   1.6219001271572E+03
(PID.TID 0000.0001) %MON DXG_max                      =   1.1352761512017E+04
(PID.TID 0000.0001) %MON DXG_min                      =   5.7917296935586E+03
(PID.TID 0000.0001) %MON DXG_mean                     =   8.5934208253080E+03
(PID.TID 0000.0001) %MON DXG_sd                       =   1.6222785520817E+03
(PID.TID 0000.0001) %MON DXV_max                      =   1.1352761512017E+04
(PID.TID 0000.0001) %MON DXV_min                      =   5.7917296935586E+03
(PID.TID 0000.0001) %MON DXV_mean                     =   8.5934208253080E+03
(PID.TID 0000.0001) %MON DXV_sd                       =   1.6222785520817E+03
(PID.TID 0000.0001) %MON YC_max                       =  -7.0050000000001E+01
(PID.TID 0000.0001) %MON YC_min                       =  -7.9950000000000E+01
(PID.TID 0000.0001) %MON YC_mean                      =  -7.5000000000000E+01
(PID.TID 0000.0001) %MON YC_sd                        =   2.8866070047720E+00
(PID.TID 0000.0001) %MON YG_max                       =  -7.0100000000001E+01
(PID.TID 0000.0001) %MON YG_min                       =  -8.0000000000000E+01
(PID.TID 0000.0001) %MON YG_mean                      =  -7.5050000000000E+01
(PID.TID 0000.0001) %MON YG_sd                        =   2.8866070047721E+00
(PID.TID 0000.0001) %MON DYC_max                      =   1.1117747335204E+04
(PID.TID 0000.0001) %MON DYC_min                      =   1.1117747335204E+04
(PID.TID 0000.0001) %MON DYC_mean                     =   1.1117747335204E+04
(PID.TID 0000.0001) %MON DYC_sd                       =   4.1836756281555E-11
(PID.TID 0000.0001) %MON DYF_max                      =   1.1117747335204E+04
(PID.TID 0000.0001) %MON DYF_min                      =   1.1117747335204E+04
(PID.TID 0000.0001) %MON DYF_mean                     =   1.1117747335204E+04
(PID.TID 0000.0001) %MON DYF_sd                       =   4.1836756281555E-11
(PID.TID 0000.0001) %MON DYG_max                      =   1.1117747335204E+04
(PID.TID 0000.0001) %MON DYG_min                      =   1.1117747335204E+04
(PID.TID 0000.0001) %MON DYG_mean                     =   1.1117747335204E+04
(PID.TID 0000.0001) %MON DYG_sd                       =   4.1836756281555E-11
(PID.TID 0000.0001) %MON DYU_max                      =   1.1117747335204E+04
(PID.TID 0000.0001) %MON DYU_min                      =   1.1117747335204E+04
(PID.TID 0000.0001) %MON DYU_mean                     =   1.1117747335204E+04
(PID.TID 0000.0001) %MON DYU_sd                       =   4.1836756281555E-11
(PID.TID 0000.0001) %MON RA_max                       =   1.2652134272379E+08
(PID.TID 0000.0001) %MON RA_min                       =   6.4709633770803E+07
(PID.TID 0000.0001) %MON RA_mean                      =   9.5851678311587E+07
(PID.TID 0000.0001) %MON RA_sd                        =   1.8031873527992E+07
(PID.TID 0000.0001) %MON RAW_max                      =   1.2652134272379E+08
(PID.TID 0000.0001) %MON RAW_min                      =   6.4709633770803E+07
(PID.TID 0000.0001) %MON RAW_mean                     =   9.5851678311587E+07
(PID.TID 0000.0001) %MON RAW_sd                       =   1.8031873527992E+07
(PID.TID 0000.0001) %MON RAS_max                      =   1.2621711802744E+08
(PID.TID 0000.0001) %MON RAS_min                      =   6.4390979194019E+07
(PID.TID 0000.0001) %MON RAS_mean                     =   9.5539469354603E+07
(PID.TID 0000.0001) %MON RAS_sd                       =   1.8036080760153E+07
(PID.TID 0000.0001) %MON RAZ_max                      =   1.2621711802744E+08
(PID.TID 0000.0001) %MON RAZ_min                      =   6.4390979194019E+07
(PID.TID 0000.0001) %MON RAZ_mean                     =   9.5539469354603E+07
(PID.TID 0000.0001) %MON RAZ_sd                       =   1.8036080760153E+07
(PID.TID 0000.0001) %MON AngleCS_max                  =   1.0000000000000E+00
(PID.TID 0000.0001) %MON AngleCS_min                  =   1.0000000000000E+00
(PID.TID 0000.0001) %MON AngleCS_mean                 =   1.0000000000000E+00
(PID.TID 0000.0001) %MON AngleCS_sd                   =   0.0000000000000E+00
(PID.TID 0000.0001) %MON AngleSN_max                  =   0.0000000000000E+00
(PID.TID 0000.0001) %MON AngleSN_min                  =   0.0000000000000E+00
(PID.TID 0000.0001) %MON AngleSN_mean                 =   0.0000000000000E+00
(PID.TID 0000.0001) %MON AngleSN_sd                   =   0.0000000000000E+00
(PID.TID 0000.0001)  MDS_READ_FIELD: opening global file: bathy.box
(PID.TID 0000.0001)  MDS_READ_FIELD: opening global file: icetopo.exp1
(PID.TID 0000.0001) // =======================================================
(PID.TID 0000.0001) // Field Model R_low (ini_masks_etc)
(PID.TID 0000.0001) // CMIN =         -9.000000000000000E+02
(PID.TID 0000.0001) // CMAX =         -9.000000000000000E+02
(PID.TID 0000.0001) // CINT =          0.000000000000000E+00
(PID.TID 0000.0001) // SYMBOLS (CMIN->CMAX): -abcdefghijklmnopqrstuvwxyz+
(PID.TID 0000.0001) //                  0.0: .
(PID.TID 0000.0001) // RANGE I (Lo:Hi:Step):(    -2:    53:     1)
(PID.TID 0000.0001) // RANGE J (Lo:Hi:Step):(   103:    -2:    -1)
(PID.TID 0000.0001) // RANGE K (Lo:Hi:Step):(   1:   1:   1)
(PID.TID 0000.0001) // =======================================================
(PID.TID 0000.0001) // =======================================================
(PID.TID 0000.0001) // END OF FIELD                                          =
(PID.TID 0000.0001) // =======================================================
(PID.TID 0000.0001) 
(PID.TID 0000.0001) // =======================================================
(PID.TID 0000.0001) // Field Model Ro_surf (ini_masks_etc)
(PID.TID 0000.0001) // CMIN =         -6.812500000000010E+02
(PID.TID 0000.0001) // CMAX =         -2.000000000000000E+02
(PID.TID 0000.0001) // CINT =          1.782407407407411E+01
(PID.TID 0000.0001) // SYMBOLS (CMIN->CMAX): -abcdefghijklmnopqrstuvwxyz+
(PID.TID 0000.0001) //                  0.0: .
(PID.TID 0000.0001) // RANGE I (Lo:Hi:Step):(    -2:    53:     1)
(PID.TID 0000.0001) // RANGE J (Lo:Hi:Step):(   103:    -2:    -1)
(PID.TID 0000.0001) // RANGE K (Lo:Hi:Step):(   1:   1:   1)
(PID.TID 0000.0001) // =======================================================
(PID.TID 0000.0001) K =   1
(PID.TID 0000.0001) //                I=7       I=17      I=27      I=31      I=41      I=51
(PID.TID 0000.0001) // |--J--|210123456|890123456|890123456|834567890|234567890|234567890|23
(PID.TID 0000.0001) //    103 aaa.aaaaaaaaaaaaaaaaaaaaaaaaaaaaaaaaaaaaaaaaaaaaaaaaaaaaaaa.aa
(PID.TID 0000.0001) //    102 ---.-------------------------------------------------------.--
(PID.TID 0000.0001) //    101 ..............................................................
(PID.TID 0000.0001) //    100 +++.+++++++++++++++++++++++++++++++++++++++++++++++++++++++.++
(PID.TID 0000.0001) //     99 +++.+++++++++++++++++++++++++++++++++++++++++++++++++++++++.++
(PID.TID 0000.0001) //     98 +++.+++++++++++++++++++++++++++++++++++++++++++++++++++++++.++
(PID.TID 0000.0001) //     97 +++.+++++++++++++++++++++++++++++++++++++++++++++++++++++++.++
(PID.TID 0000.0001) //     96 +++.+++++++++++++++++++++++++++++++++++++++++++++++++++++++.++
(PID.TID 0000.0001) //     95 +++.+++++++++++++++++++++++++++++++++++++++++++++++++++++++.++
(PID.TID 0000.0001) //     94 +++.+++++++++++++++++++++++++++++++++++++++++++++++++++++++.++
(PID.TID 0000.0001) //     93 +++.+++++++++++++++++++++++++++++++++++++++++++++++++++++++.++
(PID.TID 0000.0001) //     92 +++.+++++++++++++++++++++++++++++++++++++++++++++++++++++++.++
(PID.TID 0000.0001) //     91 +++.+++++++++++++++++++++++++++++++++++++++++++++++++++++++.++
(PID.TID 0000.0001) //     90 +++.+++++++++++++++++++++++++++++++++++++++++++++++++++++++.++
(PID.TID 0000.0001) //     89 +++.+++++++++++++++++++++++++++++++++++++++++++++++++++++++.++
(PID.TID 0000.0001) //     88 +++.+++++++++++++++++++++++++++++++++++++++++++++++++++++++.++
(PID.TID 0000.0001) //     87 +++.+++++++++++++++++++++++++++++++++++++++++++++++++++++++.++
(PID.TID 0000.0001) //     86 +++.+++++++++++++++++++++++++++++++++++++++++++++++++++++++.++
(PID.TID 0000.0001) //     85 +++.+++++++++++++++++++++++++++++++++++++++++++++++++++++++.++
(PID.TID 0000.0001) //     84 +++.+++++++++++++++++++++++++++++++++++++++++++++++++++++++.++
(PID.TID 0000.0001) //     83 +++.+++++++++++++++++++++++++++++++++++++++++++++++++++++++.++
(PID.TID 0000.0001) //     82 +++.+++++++++++++++++++++++++++++++++++++++++++++++++++++++.++
(PID.TID 0000.0001) //     81 +++.+++++++++++++++++++++++++++++++++++++++++++++++++++++++.++
(PID.TID 0000.0001) //     80 +++.+++++++++++++++++++++++++++++++++++++++++++++++++++++++.++
(PID.TID 0000.0001) //     79 +++.+++++++++++++++++++++++++++++++++++++++++++++++++++++++.++
(PID.TID 0000.0001) //     78 +++.+++++++++++++++++++++++++++++++++++++++++++++++++++++++.++
(PID.TID 0000.0001) //     77 +++.+++++++++++++++++++++++++++++++++++++++++++++++++++++++.++
(PID.TID 0000.0001) //     76 +++.+++++++++++++++++++++++++++++++++++++++++++++++++++++++.++
(PID.TID 0000.0001) //     75 +++.+++++++++++++++++++++++++++++++++++++++++++++++++++++++.++
(PID.TID 0000.0001) //     74 +++.+++++++++++++++++++++++++++++++++++++++++++++++++++++++.++
(PID.TID 0000.0001) //     73 +++.+++++++++++++++++++++++++++++++++++++++++++++++++++++++.++
(PID.TID 0000.0001) //     78 +++.+++++++++++++++++++++++++++++++++++++++++++++++++++++++.++
(PID.TID 0000.0001) //     77 +++.+++++++++++++++++++++++++++++++++++++++++++++++++++++++.++
(PID.TID 0000.0001) //     76 +++.+++++++++++++++++++++++++++++++++++++++++++++++++++++++.++
(PID.TID 0000.0001) //     75 +++.+++++++++++++++++++++++++++++++++++++++++++++++++++++++.++
(PID.TID 0000.0001) //     74 +++.+++++++++++++++++++++++++++++++++++++++++++++++++++++++.++
(PID.TID 0000.0001) //     73 +++.+++++++++++++++++++++++++++++++++++++++++++++++++++++++.++
(PID.TID 0000.0001) //     72 +++.+++++++++++++++++++++++++++++++++++++++++++++++++++++++.++
(PID.TID 0000.0001) //     71 +++.+++++++++++++++++++++++++++++++++++++++++++++++++++++++.++
(PID.TID 0000.0001) //     70 +++.+++++++++++++++++++++++++++++++++++++++++++++++++++++++.++
(PID.TID 0000.0001) //     69 +++.+++++++++++++++++++++++++++++++++++++++++++++++++++++++.++
(PID.TID 0000.0001) //     68 +++.+++++++++++++++++++++++++++++++++++++++++++++++++++++++.++
(PID.TID 0000.0001) //     67 +++.+++++++++++++++++++++++++++++++++++++++++++++++++++++++.++
(PID.TID 0000.0001) //     66 +++.+++++++++++++++++++++++++++++++++++++++++++++++++++++++.++
(PID.TID 0000.0001) //     65 +++.+++++++++++++++++++++++++++++++++++++++++++++++++++++++.++
(PID.TID 0000.0001) //     64 +++.+++++++++++++++++++++++++++++++++++++++++++++++++++++++.++
(PID.TID 0000.0001) //     63 +++.+++++++++++++++++++++++++++++++++++++++++++++++++++++++.++
(PID.TID 0000.0001) //     62 +++.+++++++++++++++++++++++++++++++++++++++++++++++++++++++.++
(PID.TID 0000.0001) //     61 +++.+++++++++++++++++++++++++++++++++++++++++++++++++++++++.++
(PID.TID 0000.0001) //     60 +++.+++++++++++++++++++++++++++++++++++++++++++++++++++++++.++
(PID.TID 0000.0001) //     59 +++.+++++++++++++++++++++++++++++++++++++++++++++++++++++++.++
(PID.TID 0000.0001) //     58 +++.+++++++++++++++++++++++++++++++++++++++++++++++++++++++.++
(PID.TID 0000.0001) //     57 +++.+++++++++++++++++++++++++++++++++++++++++++++++++++++++.++
(PID.TID 0000.0001) //     56 +++.+++++++++++++++++++++++++++++++++++++++++++++++++++++++.++
(PID.TID 0000.0001) //     55 +++.+++++++++++++++++++++++++++++++++++++++++++++++++++++++.++
(PID.TID 0000.0001) //     54 +++.+++++++++++++++++++++++++++++++++++++++++++++++++++++++.++
(PID.TID 0000.0001) //     53 +++.+++++++++++++++++++++++++++++++++++++++++++++++++++++++.++
(PID.TID 0000.0001) //     52 +++.+++++++++++++++++++++++++++++++++++++++++++++++++++++++.++
(PID.TID 0000.0001) //     51 +++.+++++++++++++++++++++++++++++++++++++++++++++++++++++++.++
(PID.TID 0000.0001) //     50 +++.+++++++++++++++++++++++++++++++++++++++++++++++++++++++.++
(PID.TID 0000.0001) //     49 +++.+++++++++++++++++++++++++++++++++++++++++++++++++++++++.++
(PID.TID 0000.0001) //     48 +++.+++++++++++++++++++++++++++++++++++++++++++++++++++++++.++
(PID.TID 0000.0001) //     53 +++.+++++++++++++++++++++++++++++++++++++++++++++++++++++++.++
(PID.TID 0000.0001) //     52 +++.+++++++++++++++++++++++++++++++++++++++++++++++++++++++.++
(PID.TID 0000.0001) //     51 +++.+++++++++++++++++++++++++++++++++++++++++++++++++++++++.++
(PID.TID 0000.0001) //     50 +++.+++++++++++++++++++++++++++++++++++++++++++++++++++++++.++
(PID.TID 0000.0001) //     49 +++.+++++++++++++++++++++++++++++++++++++++++++++++++++++++.++
(PID.TID 0000.0001) //     48 +++.+++++++++++++++++++++++++++++++++++++++++++++++++++++++.++
(PID.TID 0000.0001) //     47 +++.+++++++++++++++++++++++++++++++++++++++++++++++++++++++.++
(PID.TID 0000.0001) //     46 +++.+++++++++++++++++++++++++++++++++++++++++++++++++++++++.++
(PID.TID 0000.0001) //     45 +++.+++++++++++++++++++++++++++++++++++++++++++++++++++++++.++
(PID.TID 0000.0001) //     44 +++.+++++++++++++++++++++++++++++++++++++++++++++++++++++++.++
(PID.TID 0000.0001) //     43 +++.+++++++++++++++++++++++++++++++++++++++++++++++++++++++.++
(PID.TID 0000.0001) //     42 +++.+++++++++++++++++++++++++++++++++++++++++++++++++++++++.++
(PID.TID 0000.0001) //     41 +++.+++++++++++++++++++++++++++++++++++++++++++++++++++++++.++
(PID.TID 0000.0001) //     40 +++.+++++++++++++++++++++++++++++++++++++++++++++++++++++++.++
(PID.TID 0000.0001) //     39 zzz.zzzzzzzzzzzzzzzzzzzzzzzzzzzzzzzzzzzzzzzzzzzzzzzzzzzzzzz.zz
(PID.TID 0000.0001) //     38 yyy.yyyyyyyyyyyyyyyyyyyyyyyyyyyyyyyyyyyyyyyyyyyyyyyyyyyyyyy.yy
(PID.TID 0000.0001) //     37 yyy.yyyyyyyyyyyyyyyyyyyyyyyyyyyyyyyyyyyyyyyyyyyyyyyyyyyyyyy.yy
(PID.TID 0000.0001) //     36 xxx.xxxxxxxxxxxxxxxxxxxxxxxxxxxxxxxxxxxxxxxxxxxxxxxxxxxxxxx.xx
(PID.TID 0000.0001) //     35 www.wwwwwwwwwwwwwwwwwwwwwwwwwwwwwwwwwwwwwwwwwwwwwwwwwwwwwww.ww
(PID.TID 0000.0001) //     34 vvv.vvvvvvvvvvvvvvvvvvvvvvvvvvvvvvvvvvvvvvvvvvvvvvvvvvvvvvv.vv
(PID.TID 0000.0001) //     33 vvv.vvvvvvvvvvvvvvvvvvvvvvvvvvvvvvvvvvvvvvvvvvvvvvvvvvvvvvv.vv
(PID.TID 0000.0001) //     32 uuu.uuuuuuuuuuuuuuuuuuuuuuuuuuuuuuuuuuuuuuuuuuuuuuuuuuuuuuu.uu
(PID.TID 0000.0001) //     31 ttt.ttttttttttttttttttttttttttttttttttttttttttttttttttttttt.tt
(PID.TID 0000.0001) //     30 ttt.ttttttttttttttttttttttttttttttttttttttttttttttttttttttt.tt
(PID.TID 0000.0001) //     29 sss.sssssssssssssssssssssssssssssssssssssssssssssssssssssss.ss
(PID.TID 0000.0001) //     28 rrr.rrrrrrrrrrrrrrrrrrrrrrrrrrrrrrrrrrrrrrrrrrrrrrrrrrrrrrr.rr
(PID.TID 0000.0001) //     27 rrr.rrrrrrrrrrrrrrrrrrrrrrrrrrrrrrrrrrrrrrrrrrrrrrrrrrrrrrr.rr
(PID.TID 0000.0001) //     26 qqq.qqqqqqqqqqqqqqqqqqqqqqqqqqqqqqqqqqqqqqqqqqqqqqqqqqqqqqq.qq
(PID.TID 0000.0001) //     25 ppp.ppppppppppppppppppppppppppppppppppppppppppppppppppppppp.pp
(PID.TID 0000.0001) //     24 ooo.ooooooooooooooooooooooooooooooooooooooooooooooooooooooo.oo
(PID.TID 0000.0001) //     23 ooo.ooooooooooooooooooooooooooooooooooooooooooooooooooooooo.oo
(PID.TID 0000.0001) //     28 rrr.rrrrrrrrrrrrrrrrrrrrrrrrrrrrrrrrrrrrrrrrrrrrrrrrrrrrrrr.rr
(PID.TID 0000.0001) //     27 rrr.rrrrrrrrrrrrrrrrrrrrrrrrrrrrrrrrrrrrrrrrrrrrrrrrrrrrrrr.rr
(PID.TID 0000.0001) //     26 qqq.qqqqqqqqqqqqqqqqqqqqqqqqqqqqqqqqqqqqqqqqqqqqqqqqqqqqqqq.qq
(PID.TID 0000.0001) //     25 ppp.ppppppppppppppppppppppppppppppppppppppppppppppppppppppp.pp
(PID.TID 0000.0001) //     24 ooo.ooooooooooooooooooooooooooooooooooooooooooooooooooooooo.oo
(PID.TID 0000.0001) //     23 ooo.ooooooooooooooooooooooooooooooooooooooooooooooooooooooo.oo
(PID.TID 0000.0001) //     22 nnn.nnnnnnnnnnnnnnnnnnnnnnnnnnnnnnnnnnnnnnnnnnnnnnnnnnnnnnn.nn
(PID.TID 0000.0001) //     21 mmm.mmmmmmmmmmmmmmmmmmmmmmmmmmmmmmmmmmmmmmmmmmmmmmmmmmmmmmm.mm
(PID.TID 0000.0001) //     20 mmm.mmmmmmmmmmmmmmmmmmmmmmmmmmmmmmmmmmmmmmmmmmmmmmmmmmmmmmm.mm
(PID.TID 0000.0001) //     19 lll.lllllllllllllllllllllllllllllllllllllllllllllllllllllll.ll
(PID.TID 0000.0001) //     18 kkk.kkkkkkkkkkkkkkkkkkkkkkkkkkkkkkkkkkkkkkkkkkkkkkkkkkkkkkk.kk
(PID.TID 0000.0001) //     17 kkk.kkkkkkkkkkkkkkkkkkkkkkkkkkkkkkkkkkkkkkkkkkkkkkkkkkkkkkk.kk
(PID.TID 0000.0001) //     16 jjj.jjjjjjjjjjjjjjjjjjjjjjjjjjjjjjjjjjjjjjjjjjjjjjjjjjjjjjj.jj
(PID.TID 0000.0001) //     15 iii.iiiiiiiiiiiiiiiiiiiiiiiiiiiiiiiiiiiiiiiiiiiiiiiiiiiiiii.ii
(PID.TID 0000.0001) //     14 hhh.hhhhhhhhhhhhhhhhhhhhhhhhhhhhhhhhhhhhhhhhhhhhhhhhhhhhhhh.hh
(PID.TID 0000.0001) //     13 hhh.hhhhhhhhhhhhhhhhhhhhhhhhhhhhhhhhhhhhhhhhhhhhhhhhhhhhhhh.hh
(PID.TID 0000.0001) //     12 ggg.ggggggggggggggggggggggggggggggggggggggggggggggggggggggg.gg
(PID.TID 0000.0001) //     11 fff.fffffffffffffffffffffffffffffffffffffffffffffffffffffff.ff
(PID.TID 0000.0001) //     10 fff.fffffffffffffffffffffffffffffffffffffffffffffffffffffff.ff
(PID.TID 0000.0001) //      9 eee.eeeeeeeeeeeeeeeeeeeeeeeeeeeeeeeeeeeeeeeeeeeeeeeeeeeeeee.ee
(PID.TID 0000.0001) //      8 ddd.ddddddddddddddddddddddddddddddddddddddddddddddddddddddd.dd
(PID.TID 0000.0001) //      7 ddd.ddddddddddddddddddddddddddddddddddddddddddddddddddddddd.dd
(PID.TID 0000.0001) //      6 ccc.ccccccccccccccccccccccccccccccccccccccccccccccccccccccc.cc
(PID.TID 0000.0001) //      5 bbb.bbbbbbbbbbbbbbbbbbbbbbbbbbbbbbbbbbbbbbbbbbbbbbbbbbbbbbb.bb
(PID.TID 0000.0001) //      4 aaa.aaaaaaaaaaaaaaaaaaaaaaaaaaaaaaaaaaaaaaaaaaaaaaaaaaaaaaa.aa
(PID.TID 0000.0001) //      3 aaa.aaaaaaaaaaaaaaaaaaaaaaaaaaaaaaaaaaaaaaaaaaaaaaaaaaaaaaa.aa
(PID.TID 0000.0001) //      2 ---.-------------------------------------------------------.--
(PID.TID 0000.0001) //      1 ..............................................................
(PID.TID 0000.0001) //      0 +++.+++++++++++++++++++++++++++++++++++++++++++++++++++++++.++
(PID.TID 0000.0001) //     -1 +++.+++++++++++++++++++++++++++++++++++++++++++++++++++++++.++
(PID.TID 0000.0001) //     -2 +++.+++++++++++++++++++++++++++++++++++++++++++++++++++++++.++
(PID.TID 0000.0001) // =======================================================
(PID.TID 0000.0001) // END OF FIELD                                          =
(PID.TID 0000.0001) // =======================================================
(PID.TID 0000.0001) 
(PID.TID 0000.0001) // =======================================================
(PID.TID 0000.0001) // Field hFacC at iteration          0
(PID.TID 0000.0001) // CMIN =          1.000000000000000E+32
(PID.TID 0000.0001) // CMAX =         -1.000000000000000E+32
(PID.TID 0000.0001) // CINT =          0.000000000000000E+00
(PID.TID 0000.0001) // SYMBOLS (CMIN->CMAX): -abcdefghijklmnopqrstuvwxyz+
(PID.TID 0000.0001) //                  0.0: .
(PID.TID 0000.0001) // RANGE I (Lo:Hi:Step):(    -2:    53:     1)
(PID.TID 0000.0001) // RANGE J (Lo:Hi:Step):(   103:    -2:    -1)
(PID.TID 0000.0001) // RANGE K (Lo:Hi:Step):(   1:   1:   1)
(PID.TID 0000.0001) // =======================================================
(PID.TID 0000.0001) // =======================================================
(PID.TID 0000.0001) // END OF FIELD                                          =
(PID.TID 0000.0001) // =======================================================
(PID.TID 0000.0001) 
(PID.TID 0000.0001) // =======================================================
(PID.TID 0000.0001) // Field hFacW at iteration          0
(PID.TID 0000.0001) // CMIN =          1.000000000000000E+32
(PID.TID 0000.0001) // CMAX =         -1.000000000000000E+32
(PID.TID 0000.0001) // CINT =          0.000000000000000E+00
(PID.TID 0000.0001) // SYMBOLS (CMIN->CMAX): -abcdefghijklmnopqrstuvwxyz+
(PID.TID 0000.0001) //                  0.0: .
(PID.TID 0000.0001) // RANGE I (Lo:Hi:Step):(    -2:    53:     1)
(PID.TID 0000.0001) // RANGE J (Lo:Hi:Step):(   103:    -2:    -1)
(PID.TID 0000.0001) // RANGE K (Lo:Hi:Step):(   1:   1:   1)
(PID.TID 0000.0001) // =======================================================
(PID.TID 0000.0001) // =======================================================
(PID.TID 0000.0001) // END OF FIELD                                          =
(PID.TID 0000.0001) // =======================================================
(PID.TID 0000.0001) 
(PID.TID 0000.0001) // =======================================================
(PID.TID 0000.0001) // Field hFacS at iteration          0
(PID.TID 0000.0001) // CMIN =          1.000000000000000E+32
(PID.TID 0000.0001) // CMAX =         -1.000000000000000E+32
(PID.TID 0000.0001) // CINT =          0.000000000000000E+00
(PID.TID 0000.0001) // SYMBOLS (CMIN->CMAX): -abcdefghijklmnopqrstuvwxyz+
(PID.TID 0000.0001) //                  0.0: .
(PID.TID 0000.0001) // RANGE I (Lo:Hi:Step):(    -2:    53:     1)
(PID.TID 0000.0001) // RANGE J (Lo:Hi:Step):(   103:    -2:    -1)
(PID.TID 0000.0001) // RANGE K (Lo:Hi:Step):(   1:   1:   1)
(PID.TID 0000.0001) // =======================================================
(PID.TID 0000.0001) // =======================================================
(PID.TID 0000.0001) // END OF FIELD                                          =
(PID.TID 0000.0001) // =======================================================
(PID.TID 0000.0001) 
(PID.TID 0000.0001) GAD_INIT_FIXED: GAD_OlMinSize=  1  0  1
(PID.TID 0000.0001) 
(PID.TID 0000.0001) // ===================================
(PID.TID 0000.0001) // GAD parameters :
(PID.TID 0000.0001) // ===================================
(PID.TID 0000.0001) tempAdvScheme =   /* Temp. Horiz.Advection scheme selector */
(PID.TID 0000.0001)                       2
(PID.TID 0000.0001)     ;
(PID.TID 0000.0001) tempVertAdvScheme =   /* Temp. Vert. Advection scheme selector */
(PID.TID 0000.0001)                       2
(PID.TID 0000.0001)     ;
(PID.TID 0000.0001) tempMultiDimAdvec =   /* use Muti-Dim Advec method for Temp */
(PID.TID 0000.0001)                   F
(PID.TID 0000.0001)     ;
(PID.TID 0000.0001) tempSOM_Advection = /* use 2nd Order Moment Advection for Temp */
(PID.TID 0000.0001)                   F
(PID.TID 0000.0001)     ;
(PID.TID 0000.0001) AdamsBashforthGt = /* apply Adams-Bashforth extrapolation on Gt */
(PID.TID 0000.0001)                   T
(PID.TID 0000.0001)     ;
(PID.TID 0000.0001) AdamsBashforth_T = /* apply Adams-Bashforth extrapolation on Temp */
(PID.TID 0000.0001)                   F
(PID.TID 0000.0001)     ;
(PID.TID 0000.0001) saltAdvScheme =   /* Salt. Horiz.advection scheme selector */
(PID.TID 0000.0001)                       2
(PID.TID 0000.0001)     ;
(PID.TID 0000.0001) saltVertAdvScheme =   /* Salt. Vert. Advection scheme selector */
(PID.TID 0000.0001)                       2
(PID.TID 0000.0001)     ;
(PID.TID 0000.0001) saltMultiDimAdvec =   /* use Muti-Dim Advec method for Salt */
(PID.TID 0000.0001)                   F
(PID.TID 0000.0001)     ;
(PID.TID 0000.0001) saltSOM_Advection = /* use 2nd Order Moment Advection for Salt */
(PID.TID 0000.0001)                   F
(PID.TID 0000.0001)     ;
(PID.TID 0000.0001) AdamsBashforthGs = /* apply Adams-Bashforth extrapolation on Gs */
(PID.TID 0000.0001)                   T
(PID.TID 0000.0001)     ;
(PID.TID 0000.0001) AdamsBashforth_S = /* apply Adams-Bashforth extrapolation on Salt */
(PID.TID 0000.0001)                   F
(PID.TID 0000.0001)     ;
(PID.TID 0000.0001) // ===================================
(PID.TID 0000.0001)  MDS_READ_FIELD: opening global file: phi0surf.exp1.jmd95z
(PID.TID 0000.0001) %MON fCori_max                    =  -1.3709057042516E-04
(PID.TID 0000.0001) %MON fCori_min                    =  -1.4360464034757E-04
(PID.TID 0000.0001) %MON fCori_mean                   =  -1.4069429304698E-04
(PID.TID 0000.0001) %MON fCori_sd                     =   1.9069739624987E-06
(PID.TID 0000.0001) %MON fCoriG_max                   =  -1.3713394327439E-04
(PID.TID 0000.0001) %MON fCoriG_min                   =  -1.4362679550910E-04
(PID.TID 0000.0001) %MON fCoriG_mean                  =  -1.4072713798624E-04
(PID.TID 0000.0001) %MON fCoriG_sd                    =   1.9008093726821E-06
(PID.TID 0000.0001) %MON fCoriCos_max                 =   4.9761447480159E-05
(PID.TID 0000.0001) %MON fCoriCos_min                 =   2.5450607565678E-05
(PID.TID 0000.0001) %MON fCoriCos_mean                =   3.7698922201606E-05
(PID.TID 0000.0001) %MON fCoriCos_sd                  =   7.0920218535055E-06
(PID.TID 0000.0001) INI_CG2D: CG2D normalisation factor =  1.0404366262810520E-03
(PID.TID 0000.0001) 
(PID.TID 0000.0001) // =======================================================
(PID.TID 0000.0001) // Model configuration
(PID.TID 0000.0001) // =======================================================
(PID.TID 0000.0001) //
(PID.TID 0000.0001) // "Physical" paramters ( PARM01 in namelist )
(PID.TID 0000.0001) //
(PID.TID 0000.0001) buoyancyRelation = /* Type of relation to get Buoyancy */
(PID.TID 0000.0001)               'OCEANIC'
(PID.TID 0000.0001)     ;
(PID.TID 0000.0001) fluidIsAir   =  /* fluid major constituent is Air */
(PID.TID 0000.0001)                   F
(PID.TID 0000.0001)     ;
(PID.TID 0000.0001) fluidIsWater =  /* fluid major constituent is Water */
(PID.TID 0000.0001)                   T
(PID.TID 0000.0001)     ;
(PID.TID 0000.0001) usingPCoords =  /* use p (or p*) vertical coordinate */
(PID.TID 0000.0001)                   F
(PID.TID 0000.0001)     ;
(PID.TID 0000.0001) usingZCoords =  /* use z (or z*) vertical coordinate */
(PID.TID 0000.0001)                   T
(PID.TID 0000.0001)     ;
(PID.TID 0000.0001) tRef =   /* Reference temperature profile ( oC or K ) */
(PID.TID 0000.0001)    30 @ -1.900000000000000E+00              /* K =  1: 30 */
(PID.TID 0000.0001)     ;
(PID.TID 0000.0001) sRef =   /* Reference salinity profile ( psu ) */
(PID.TID 0000.0001)    30 @  3.440000000000000E+01              /* K =  1: 30 */
(PID.TID 0000.0001)     ;
(PID.TID 0000.0001) useStrainTensionVisc= /* Use StrainTension Form of Viscous Operator */
(PID.TID 0000.0001)                   F
(PID.TID 0000.0001)     ;
(PID.TID 0000.0001) useVariableVisc = /* Use variable horizontal viscosity */
(PID.TID 0000.0001)                   F
(PID.TID 0000.0001)     ;
(PID.TID 0000.0001) useHarmonicVisc = /* Use harmonic horizontal viscosity */
(PID.TID 0000.0001)                   T
(PID.TID 0000.0001)     ;
(PID.TID 0000.0001) useBiharmonicVisc= /* Use biharmonic horiz.  viscosity */
(PID.TID 0000.0001)                   F
(PID.TID 0000.0001)     ;
(PID.TID 0000.0001) useSmag3D = /* Use isotropic 3-D Smagorinsky viscosity */
(PID.TID 0000.0001)                   F
(PID.TID 0000.0001)     ;
(PID.TID 0000.0001) viscAh  =   /* Lateral harmonic viscosity ( m^2/s ) */
(PID.TID 0000.0001)                 6.000000000000000E+02
(PID.TID 0000.0001)     ;
(PID.TID 0000.0001) viscA4  =   /* Lateral biharmonic viscosity ( m^4/s ) */
(PID.TID 0000.0001)                 0.000000000000000E+00
(PID.TID 0000.0001)     ;
(PID.TID 0000.0001) no_slip_sides =  /* Viscous BCs: No-slip sides */
(PID.TID 0000.0001)                   F
(PID.TID 0000.0001)     ;
(PID.TID 0000.0001) sideDragFactor = /* side-drag scaling factor (non-dim) */
(PID.TID 0000.0001)                 2.000000000000000E+00
(PID.TID 0000.0001)     ;
(PID.TID 0000.0001) viscArNr = /* vertical profile of vertical viscosity ( m^2/s )*/
(PID.TID 0000.0001)    30 @  1.000000000000000E-03              /* K =  1: 30 */
(PID.TID 0000.0001)     ;
(PID.TID 0000.0001) no_slip_bottom =  /* Viscous BCs: No-slip bottom */
(PID.TID 0000.0001)                   F
(PID.TID 0000.0001)     ;
(PID.TID 0000.0001) bottomVisc_pCell = /* Partial-cell in bottom Visc. BC */
(PID.TID 0000.0001)                   F
(PID.TID 0000.0001)     ;
(PID.TID 0000.0001) bottomDragLinear = /* linear bottom-drag coefficient ( m/s ) */
(PID.TID 0000.0001)                 0.000000000000000E+00
(PID.TID 0000.0001)     ;
(PID.TID 0000.0001) bottomDragQuadratic = /* quadratic bottom-drag coefficient (-) */
(PID.TID 0000.0001)                 2.500000000000000E-03
(PID.TID 0000.0001)     ;
(PID.TID 0000.0001) selectBotDragQuadr = /* select quadratic bottom drag options */
(PID.TID 0000.0001)                       0
(PID.TID 0000.0001)     ;
(PID.TID 0000.0001) diffKhT =   /* Laplacian diffusion of heat laterally ( m^2/s ) */
(PID.TID 0000.0001)                 1.000000000000000E+02
(PID.TID 0000.0001)     ;
(PID.TID 0000.0001) diffK4T =   /* Biharmonic diffusion of heat laterally ( m^4/s ) */
(PID.TID 0000.0001)                 0.000000000000000E+00
(PID.TID 0000.0001)     ;
(PID.TID 0000.0001) diffKhS =   /* Laplacian diffusion of salt laterally ( m^2/s ) */
(PID.TID 0000.0001)                 1.000000000000000E+02
(PID.TID 0000.0001)     ;
(PID.TID 0000.0001) diffK4S =   /* Biharmonic diffusion of salt laterally ( m^4/s ) */
(PID.TID 0000.0001)                 0.000000000000000E+00
(PID.TID 0000.0001)     ;
(PID.TID 0000.0001) diffKrNrT = /* vertical profile of vertical diffusion of Temp ( m^2/s )*/
(PID.TID 0000.0001)    30 @  5.000000000000000E-05              /* K =  1: 30 */
(PID.TID 0000.0001)     ;
(PID.TID 0000.0001) diffKrNrS = /* vertical profile of vertical diffusion of Salt ( m^2/s )*/
(PID.TID 0000.0001)    30 @  5.000000000000000E-05              /* K =  1: 30 */
(PID.TID 0000.0001)     ;
(PID.TID 0000.0001) diffKrBL79surf = /* Surface diffusion for Bryan and Lewis 79 ( m^2/s ) */
(PID.TID 0000.0001)                 0.000000000000000E+00
(PID.TID 0000.0001)     ;
(PID.TID 0000.0001) diffKrBL79deep = /* Deep diffusion for Bryan and Lewis 1979 ( m^2/s ) */
(PID.TID 0000.0001)                 0.000000000000000E+00
(PID.TID 0000.0001)     ;
(PID.TID 0000.0001) diffKrBL79scl = /* Depth scale for Bryan and Lewis 1979 ( m ) */
(PID.TID 0000.0001)                 2.000000000000000E+02
(PID.TID 0000.0001)     ;
(PID.TID 0000.0001) diffKrBL79Ho = /* Turning depth for Bryan and Lewis 1979 ( m ) */
(PID.TID 0000.0001)                -2.000000000000000E+03
(PID.TID 0000.0001)     ;
(PID.TID 0000.0001) ivdc_kappa = /* Implicit Vertical Diffusivity for Convection ( m^2/s) */
(PID.TID 0000.0001)                 0.000000000000000E+00
(PID.TID 0000.0001)     ;
(PID.TID 0000.0001) hMixCriteria=  /* Criteria for mixed-layer diagnostic */
(PID.TID 0000.0001)                -8.000000000000000E-01
(PID.TID 0000.0001)     ;
(PID.TID 0000.0001) dRhoSmall =  /* Parameter for mixed-layer diagnostic */
(PID.TID 0000.0001)                 1.000000000000000E-06
(PID.TID 0000.0001)     ;
(PID.TID 0000.0001) hMixSmooth=  /* Smoothing parameter for mixed-layer diagnostic */
(PID.TID 0000.0001)                 0.000000000000000E+00
(PID.TID 0000.0001)     ;
(PID.TID 0000.0001) eosType =  /* Type of Equation of State */
(PID.TID 0000.0001)               'JMD95Z'
(PID.TID 0000.0001)     ;
(PID.TID 0000.0001) selectP_inEOS_Zc = /* select pressure to use in EOS (0,1,2,3) */
(PID.TID 0000.0001)                       0
(PID.TID 0000.0001)     0= -g*rhoConst*z ; 1= pRef (from tRef,sRef); 2= Hyd P ; 3= Hyd+NH P
(PID.TID 0000.0001)     ;
(PID.TID 0000.0001) HeatCapacity_Cp =  /* Specific heat capacity ( J/kg/K ) */
(PID.TID 0000.0001)                 3.974000000000000E+03
(PID.TID 0000.0001)     ;
(PID.TID 0000.0001) celsius2K = /* 0 degree Celsius converted to Kelvin ( K ) */
(PID.TID 0000.0001)                 2.731500000000000E+02
(PID.TID 0000.0001)     ;
(PID.TID 0000.0001) rhoConst  = /* Reference density (Boussinesq)  ( kg/m^3 ) */
(PID.TID 0000.0001)                 1.030000000000000E+03
(PID.TID 0000.0001)     ;
(PID.TID 0000.0001) rhoFacC = /* normalized Reference density @ cell-Center (-) */
(PID.TID 0000.0001)    30 @  1.000000000000000E+00              /* K =  1: 30 */
(PID.TID 0000.0001)     ;
(PID.TID 0000.0001) rhoFacF = /* normalized Reference density @ W-Interface (-) */
(PID.TID 0000.0001)    31 @  1.000000000000000E+00              /* K =  1: 31 */
(PID.TID 0000.0001)     ;
(PID.TID 0000.0001) rhoConstFresh = /* Fresh-water reference density ( kg/m^3 ) */
(PID.TID 0000.0001)                 1.030000000000000E+03
(PID.TID 0000.0001)     ;
(PID.TID 0000.0001) gravity =   /* Gravitational acceleration ( m/s^2 ) */
(PID.TID 0000.0001)                 9.810000000000000E+00
(PID.TID 0000.0001)     ;
(PID.TID 0000.0001) gBaro =   /* Barotropic gravity ( m/s^2 ) */
(PID.TID 0000.0001)                 9.810000000000000E+00
(PID.TID 0000.0001)     ;
(PID.TID 0000.0001) gravFacC = /* gravity factor (vs surf.) @ cell-Center (-) */
(PID.TID 0000.0001)    30 @  1.000000000000000E+00              /* K =  1: 30 */
(PID.TID 0000.0001)     ;
(PID.TID 0000.0001) gravFacF = /* gravity factor (vs surf.) @ W-Interface (-) */
(PID.TID 0000.0001)    31 @  1.000000000000000E+00              /* K =  1: 31 */
(PID.TID 0000.0001)     ;
(PID.TID 0000.0001) rotationPeriod =   /* Rotation Period ( s ) */
(PID.TID 0000.0001)                 8.616400000000000E+04
(PID.TID 0000.0001)     ;
(PID.TID 0000.0001) omega =   /* Angular velocity ( rad/s ) */
(PID.TID 0000.0001)                 7.292123516990375E-05
(PID.TID 0000.0001)     ;
(PID.TID 0000.0001) f0 =   /* Reference coriolis parameter ( 1/s ) */
(PID.TID 0000.0001)                 1.000000000000000E-04
(PID.TID 0000.0001)     ;
(PID.TID 0000.0001) beta =   /* Beta ( 1/(m.s) ) */
(PID.TID 0000.0001)                 9.999999999999999E-12
(PID.TID 0000.0001)     ;
(PID.TID 0000.0001) fPrime =   /* Second coriolis parameter ( 1/s ) */
(PID.TID 0000.0001)                 0.000000000000000E+00
(PID.TID 0000.0001)     ;
(PID.TID 0000.0001) rigidLid =   /* Rigid lid on/off flag */
(PID.TID 0000.0001)                   F
(PID.TID 0000.0001)     ;
(PID.TID 0000.0001) implicitFreeSurface =   /* Implicit free surface on/off flag */
(PID.TID 0000.0001)                   T
(PID.TID 0000.0001)     ;
(PID.TID 0000.0001) freeSurfFac =   /* Implicit free surface factor */
(PID.TID 0000.0001)                 1.000000000000000E+00
(PID.TID 0000.0001)     ;
(PID.TID 0000.0001) implicSurfPress =  /* Surface Pressure implicit factor (0-1)*/
(PID.TID 0000.0001)                 1.000000000000000E+00
(PID.TID 0000.0001)     ;
(PID.TID 0000.0001) implicDiv2DFlow =  /* Barot. Flow Div. implicit factor (0-1)*/
(PID.TID 0000.0001)                 1.000000000000000E+00
(PID.TID 0000.0001)     ;
(PID.TID 0000.0001) uniformLin_PhiSurf = /* use uniform Bo_surf on/off flag*/
(PID.TID 0000.0001)                   T
(PID.TID 0000.0001)     ;
(PID.TID 0000.0001) uniformFreeSurfLev = /* free-surface level-index is uniform */
(PID.TID 0000.0001)                   F
(PID.TID 0000.0001)     ;
(PID.TID 0000.0001) hFacMin =   /* minimum partial cell factor (hFac) */
(PID.TID 0000.0001)                 5.000000000000000E-02
(PID.TID 0000.0001)     ;
(PID.TID 0000.0001) hFacMinDr = /* minimum partial cell thickness ( m) */
(PID.TID 0000.0001)                 0.000000000000000E+00
(PID.TID 0000.0001)     ;
(PID.TID 0000.0001) exactConserv =  /* Exact Volume Conservation on/off flag*/
(PID.TID 0000.0001)                   T
(PID.TID 0000.0001)     ;
(PID.TID 0000.0001) linFSConserveTr = /* Tracer correction for Lin Free Surface on/off flag*/
(PID.TID 0000.0001)                   F
(PID.TID 0000.0001)     ;
(PID.TID 0000.0001) nonlinFreeSurf = /* Non-linear Free Surf. options (-1,0,1,2,3)*/
(PID.TID 0000.0001)                       0
(PID.TID 0000.0001)      -1,0= Off ; 1,2,3= On, 2=+rescale gU,gV, 3=+update cg2d solv.
(PID.TID 0000.0001)     ;
(PID.TID 0000.0001) hFacInf =   /* lower threshold for hFac (nonlinFreeSurf only)*/
(PID.TID 0000.0001)                 2.000000000000000E-01
(PID.TID 0000.0001)     ;
(PID.TID 0000.0001) hFacSup =   /* upper threshold for hFac (nonlinFreeSurf only)*/
(PID.TID 0000.0001)                 2.000000000000000E+00
(PID.TID 0000.0001)     ;
(PID.TID 0000.0001) select_rStar = /* r* Vertical coord. options (=0 r coord.; >0 uses r*)*/
(PID.TID 0000.0001)                       0
(PID.TID 0000.0001)     ;
(PID.TID 0000.0001) useRealFreshWaterFlux = /* Real Fresh Water Flux on/off flag*/
(PID.TID 0000.0001)                   F
(PID.TID 0000.0001)     ;
(PID.TID 0000.0001) temp_EvPrRn = /* Temp. of Evap/Prec/R (UNSET=use local T)(oC)*/
(PID.TID 0000.0001)                 1.234567000000000E+05
(PID.TID 0000.0001)     ;
(PID.TID 0000.0001) salt_EvPrRn = /* Salin. of Evap/Prec/R (UNSET=use local S)(psu)*/
(PID.TID 0000.0001)                 0.000000000000000E+00
(PID.TID 0000.0001)     ;
(PID.TID 0000.0001) selectAddFluid = /* option for mass source/sink of fluid (=0: off) */
(PID.TID 0000.0001)                       0
(PID.TID 0000.0001)     ;
(PID.TID 0000.0001) temp_addMass = /* Temp. of addMass array (UNSET=use local T)(oC)*/
(PID.TID 0000.0001)                 1.234567000000000E+05
(PID.TID 0000.0001)     ;
(PID.TID 0000.0001) salt_addMass = /* Salin. of addMass array (UNSET=use local S)(psu)*/
(PID.TID 0000.0001)                 0.000000000000000E+00
(PID.TID 0000.0001)     ;
(PID.TID 0000.0001) convertFW2Salt = /* convert F.W. Flux to Salt Flux (-1=use local S)(psu)*/
(PID.TID 0000.0001)                 3.340000000000000E+01
(PID.TID 0000.0001)     ;
(PID.TID 0000.0001) use3Dsolver = /* use 3-D pressure solver on/off flag */
(PID.TID 0000.0001)                   F
(PID.TID 0000.0001)     ;
(PID.TID 0000.0001) nonHydrostatic =  /* Non-Hydrostatic on/off flag */
(PID.TID 0000.0001)                   F
(PID.TID 0000.0001)     ;
(PID.TID 0000.0001) nh_Am2 = /* Non-Hydrostatic terms scaling factor */
(PID.TID 0000.0001)                 1.000000000000000E+00
(PID.TID 0000.0001)     ;
(PID.TID 0000.0001) implicitNHPress = /* Non-Hyd Pressure implicit factor (0-1)*/
(PID.TID 0000.0001)                 1.000000000000000E+00
(PID.TID 0000.0001)     ;
(PID.TID 0000.0001) selectNHfreeSurf = /* Non-Hyd (free-)Surface option */
(PID.TID 0000.0001)                       0
(PID.TID 0000.0001)     ;
(PID.TID 0000.0001) quasiHydrostatic = /* Quasi-Hydrostatic on/off flag */
(PID.TID 0000.0001)                   F
(PID.TID 0000.0001)     ;
(PID.TID 0000.0001) calc_wVelocity = /* vertical velocity calculation on/off flag */
(PID.TID 0000.0001)                   T
(PID.TID 0000.0001)     ;
(PID.TID 0000.0001) momStepping =  /* Momentum equation on/off flag */
(PID.TID 0000.0001)                   T
(PID.TID 0000.0001)     ;
(PID.TID 0000.0001) vectorInvariantMomentum= /* Vector-Invariant Momentum on/off */
(PID.TID 0000.0001)                   F
(PID.TID 0000.0001)     ;
(PID.TID 0000.0001) momAdvection =  /* Momentum advection on/off flag */
(PID.TID 0000.0001)                   T
(PID.TID 0000.0001)     ;
(PID.TID 0000.0001) momViscosity =  /* Momentum viscosity on/off flag */
(PID.TID 0000.0001)                   T
(PID.TID 0000.0001)     ;
(PID.TID 0000.0001) momImplVertAdv= /* Momentum implicit vert. advection on/off*/
(PID.TID 0000.0001)                   F
(PID.TID 0000.0001)     ;
(PID.TID 0000.0001) implicitViscosity = /* Implicit viscosity on/off flag */
(PID.TID 0000.0001)                   F
(PID.TID 0000.0001)     ;
(PID.TID 0000.0001) selectImplicitDrag= /* Implicit bot Drag options (0,1,2)*/
(PID.TID 0000.0001)                       0
(PID.TID 0000.0001)     0= Expl. ; 1= Impl. on provis. Vel ; 2= Fully Impl (with surf.P)
(PID.TID 0000.0001)     ;
(PID.TID 0000.0001) metricTerms =  /* metric-Terms on/off flag */
(PID.TID 0000.0001)                   T
(PID.TID 0000.0001)     ;
(PID.TID 0000.0001) useNHMTerms = /* Non-Hydrostatic Metric-Terms on/off */
(PID.TID 0000.0001)                   F
(PID.TID 0000.0001)     ;
(PID.TID 0000.0001) selectCoriMap = /* Coriolis Map options (0,1,2,3)*/
(PID.TID 0000.0001)                       2
(PID.TID 0000.0001)     0= f-Plane ; 1= Beta-Plane ; 2= Spherical ; 3= read from file
(PID.TID 0000.0001)     ;
(PID.TID 0000.0001) use3dCoriolis = /* 3-D Coriolis on/off flag */
(PID.TID 0000.0001)                   F
(PID.TID 0000.0001)     ;
(PID.TID 0000.0001) useCoriolis =  /* Coriolis on/off flag */
(PID.TID 0000.0001)                   T
(PID.TID 0000.0001)     ;
(PID.TID 0000.0001) useCDscheme =  /* CD scheme on/off flag */
(PID.TID 0000.0001)                   T
(PID.TID 0000.0001)     ;
(PID.TID 0000.0001) useEnergyConservingCoriolis= /* Flx-Form Coriolis scheme flag */
(PID.TID 0000.0001)                   F
(PID.TID 0000.0001)     ;
(PID.TID 0000.0001) useJamartWetPoints= /* Coriolis WetPoints method flag */
(PID.TID 0000.0001)                   F
(PID.TID 0000.0001)     ;
(PID.TID 0000.0001) useJamartMomAdv= /* V.I Non-linear terms Jamart flag */
(PID.TID 0000.0001)                   F
(PID.TID 0000.0001)     ;
(PID.TID 0000.0001) useAbsVorticity= /* V.I Works with f+zeta in Coriolis */
(PID.TID 0000.0001)                   F
(PID.TID 0000.0001)     ;
(PID.TID 0000.0001) selectVortScheme= /* V.I Scheme selector for Vorticity-Term */
(PID.TID 0000.0001)               123456789
(PID.TID 0000.0001)    = 0 : enstrophy (Shallow-Water Eq.) conserving scheme by Sadourny, JAS 75
(PID.TID 0000.0001)    = 1 : same as 0 with modified hFac
(PID.TID 0000.0001)    = 2 : energy conserving scheme (used by Sadourny in JAS 75 paper)
(PID.TID 0000.0001)    = 3 : energy (general) and enstrophy (2D, nonDiv.) conserving scheme
(PID.TID 0000.0001)          from Sadourny (Burridge & Haseler, ECMWF Rep.4, 1977)
(PID.TID 0000.0001)     ;
(PID.TID 0000.0001) upwindVorticity= /* V.I Upwind bias vorticity flag */
(PID.TID 0000.0001)                   F
(PID.TID 0000.0001)     ;
(PID.TID 0000.0001) highOrderVorticity= /* V.I High order vort. advect. flag */
(PID.TID 0000.0001)                   F
(PID.TID 0000.0001)     ;
(PID.TID 0000.0001) upwindShear= /* V.I Upwind vertical Shear advection flag */
(PID.TID 0000.0001)                   F
(PID.TID 0000.0001)     ;
(PID.TID 0000.0001) selectKEscheme= /* V.I Kinetic Energy scheme selector */
(PID.TID 0000.0001)                       0
(PID.TID 0000.0001)     ;
(PID.TID 0000.0001) momForcing =  /* Momentum forcing on/off flag */
(PID.TID 0000.0001)                   T
(PID.TID 0000.0001)     ;
(PID.TID 0000.0001) momPressureForcing =  /* Momentum pressure term on/off flag */
(PID.TID 0000.0001)                   T
(PID.TID 0000.0001)     ;
(PID.TID 0000.0001) implicitIntGravWave= /* Implicit Internal Gravity Wave flag */
(PID.TID 0000.0001)                   F
(PID.TID 0000.0001)     ;
(PID.TID 0000.0001) staggerTimeStep =    /* Stagger time stepping on/off flag */
(PID.TID 0000.0001)                   F
(PID.TID 0000.0001)     ;
(PID.TID 0000.0001) doResetHFactors = /* reset thickness factors @ each time-step */
(PID.TID 0000.0001)                   F
(PID.TID 0000.0001)     ;
(PID.TID 0000.0001) multiDimAdvection =  /* enable/disable Multi-Dim Advection */
(PID.TID 0000.0001)                   T
(PID.TID 0000.0001)     ;
(PID.TID 0000.0001) useMultiDimAdvec =   /* Multi-Dim Advection is/is-not used */
(PID.TID 0000.0001)                   F
(PID.TID 0000.0001)     ;
(PID.TID 0000.0001) implicitDiffusion = /* Implicit Diffusion on/off flag */
(PID.TID 0000.0001)                   F
(PID.TID 0000.0001)     ;
(PID.TID 0000.0001) tempStepping =  /* Temperature equation on/off flag */
(PID.TID 0000.0001)                   T
(PID.TID 0000.0001)     ;
(PID.TID 0000.0001) tempAdvection = /* Temperature advection on/off flag */
(PID.TID 0000.0001)                   T
(PID.TID 0000.0001)     ;
(PID.TID 0000.0001) tempImplVertAdv = /* Temp. implicit vert. advection on/off */
(PID.TID 0000.0001)                   F
(PID.TID 0000.0001)     ;
(PID.TID 0000.0001) tempForcing  =  /* Temperature forcing on/off flag */
(PID.TID 0000.0001)                   T
(PID.TID 0000.0001)     ;
(PID.TID 0000.0001) doThetaClimRelax = /* apply SST relaxation on/off flag */
(PID.TID 0000.0001)                   F
(PID.TID 0000.0001)     ;
(PID.TID 0000.0001) tempIsActiveTr = /* Temp. is a dynamically Active Tracer */
(PID.TID 0000.0001)                   T
(PID.TID 0000.0001)     ;
(PID.TID 0000.0001) saltStepping =  /* Salinity equation on/off flag */
(PID.TID 0000.0001)                   T
(PID.TID 0000.0001)     ;
(PID.TID 0000.0001) saltAdvection = /* Salinity advection on/off flag */
(PID.TID 0000.0001)                   T
(PID.TID 0000.0001)     ;
(PID.TID 0000.0001) saltImplVertAdv = /* Sali. implicit vert. advection on/off */
(PID.TID 0000.0001)                   F
(PID.TID 0000.0001)     ;
(PID.TID 0000.0001) saltForcing  =  /* Salinity forcing on/off flag */
(PID.TID 0000.0001)                   T
(PID.TID 0000.0001)     ;
(PID.TID 0000.0001) doSaltClimRelax = /* apply SSS relaxation on/off flag */
(PID.TID 0000.0001)                   F
(PID.TID 0000.0001)     ;
(PID.TID 0000.0001) saltIsActiveTr = /* Salt  is a dynamically Active Tracer */
(PID.TID 0000.0001)                   T
(PID.TID 0000.0001)     ;
(PID.TID 0000.0001)  readBinaryPrec = /* Precision used for reading binary files */
(PID.TID 0000.0001)                      64
(PID.TID 0000.0001)     ;
(PID.TID 0000.0001) writeBinaryPrec = /* Precision used for writing binary files */
(PID.TID 0000.0001)                      32
(PID.TID 0000.0001)     ;
(PID.TID 0000.0001)  rwSuffixType =   /* select format of mds file suffix */
(PID.TID 0000.0001)                       0
(PID.TID 0000.0001)    = 0 : myIter (I10.10) ;   = 1 : 100*myTime (100th sec) ;
(PID.TID 0000.0001)    = 2 : myTime (seconds);   = 3 : myTime/360 (10th of hr);
(PID.TID 0000.0001)    = 4 : myTime/3600 (hours)
(PID.TID 0000.0001)     ;
(PID.TID 0000.0001)  globalFiles = /* write "global" (=not per tile) files */
(PID.TID 0000.0001)                   F
(PID.TID 0000.0001)     ;
(PID.TID 0000.0001)  useSingleCpuIO = /* only master MPI process does I/O */
(PID.TID 0000.0001)                   F
(PID.TID 0000.0001)     ;
(PID.TID 0000.0001)  useSingleCpuInput = /* only master process reads input */
(PID.TID 0000.0001)                   F
(PID.TID 0000.0001)     ;
(PID.TID 0000.0001) /* debLev[*]  : level of debug & auxiliary message printing */
(PID.TID 0000.0001) debLevZero =  0 ; /* level of disabled aux. msg printing */
(PID.TID 0000.0001)    debLevA =  1 ; /* level of minimum  aux. msg printing */
(PID.TID 0000.0001)    debLevB =  2 ; /* level of low aux. print (report read-file opening)*/
(PID.TID 0000.0001)    debLevC =  3 ; /* level of moderate debug prt (most pkgs debug msg) */
(PID.TID 0000.0001)    debLevD =  4 ; /* level of enhanced debug prt (add DEBUG_STATS prt) */
(PID.TID 0000.0001)    debLevE =  5 ; /* level of extensive debug printing */
(PID.TID 0000.0001) debugLevel =  /* select debug printing level */
(PID.TID 0000.0001)                       2
(PID.TID 0000.0001)     ;
(PID.TID 0000.0001)  plotLevel =  /* select PLOT_FIELD printing level */
(PID.TID 0000.0001)                       2
(PID.TID 0000.0001)     ;
(PID.TID 0000.0001) //
(PID.TID 0000.0001) // Elliptic solver(s) paramters ( PARM02 in namelist )
(PID.TID 0000.0001) //
(PID.TID 0000.0001) cg2dMaxIters =   /* Upper limit on 2d con. grad iterations  */
(PID.TID 0000.0001)                    1000
(PID.TID 0000.0001)     ;
(PID.TID 0000.0001) cg2dChkResFreq =   /* 2d con. grad convergence test frequency */
(PID.TID 0000.0001)                       1
(PID.TID 0000.0001)     ;
(PID.TID 0000.0001) cg2dUseMinResSol= /* use cg2d last-iter(=0) / min-resid.(=1) solution */
(PID.TID 0000.0001)                       0
(PID.TID 0000.0001)     ;
(PID.TID 0000.0001) cg2dTargetResidual =   /* 2d con. grad target residual  */
(PID.TID 0000.0001)                 1.000000000000000E-13
(PID.TID 0000.0001)     ;
(PID.TID 0000.0001) cg2dTargetResWunit =   /* CG2d target residual [W units] */
(PID.TID 0000.0001)                -1.000000000000000E+00
(PID.TID 0000.0001)     ;
(PID.TID 0000.0001) cg2dPreCondFreq =   /* Freq. for updating cg2d preconditioner */
(PID.TID 0000.0001)                       1
(PID.TID 0000.0001)     ;
(PID.TID 0000.0001) useSRCGSolver =  /* use single reduction CG solver(s) */
(PID.TID 0000.0001)                   F
(PID.TID 0000.0001)     ;
(PID.TID 0000.0001) printResidualFreq = /* Freq. for printing CG residual */
(PID.TID 0000.0001)                       0
(PID.TID 0000.0001)     ;
(PID.TID 0000.0001) //
(PID.TID 0000.0001) // Time stepping paramters ( PARM03 in namelist )
(PID.TID 0000.0001) //
(PID.TID 0000.0001) deltaTMom =   /* Momentum equation timestep ( s ) */
(PID.TID 0000.0001)                 1.800000000000000E+03
(PID.TID 0000.0001)     ;
(PID.TID 0000.0001) deltaTFreeSurf = /* FreeSurface equation timestep ( s ) */
(PID.TID 0000.0001)                 1.800000000000000E+03
(PID.TID 0000.0001)     ;
(PID.TID 0000.0001) dTtracerLev =  /* Tracer equation timestep ( s ) */
(PID.TID 0000.0001)    30 @  1.800000000000000E+03              /* K =  1: 30 */
(PID.TID 0000.0001)     ;
(PID.TID 0000.0001) deltaTClock  =   /* Model clock timestep ( s ) */
(PID.TID 0000.0001)                 1.800000000000000E+03
(PID.TID 0000.0001)     ;
(PID.TID 0000.0001) cAdjFreq =   /* Convective adjustment interval ( s ) */
(PID.TID 0000.0001)                 1.800000000000000E+03
(PID.TID 0000.0001)     ;
(PID.TID 0000.0001) momForcingOutAB = /* =1: take Momentum Forcing out of Adams-Bash. stepping */
(PID.TID 0000.0001)                       0
(PID.TID 0000.0001)     ;
(PID.TID 0000.0001) tracForcingOutAB = /* =1: take T,S,pTr Forcing out of Adams-Bash. stepping */
(PID.TID 0000.0001)                       0
(PID.TID 0000.0001)     ;
(PID.TID 0000.0001) momDissip_In_AB = /* put Dissipation Tendency in Adams-Bash. stepping */
(PID.TID 0000.0001)                   T
(PID.TID 0000.0001)     ;
(PID.TID 0000.0001) doAB_onGtGs = /* apply AB on Tendencies (rather than on T,S)*/
(PID.TID 0000.0001)                   T
(PID.TID 0000.0001)     ;
(PID.TID 0000.0001) abEps =   /* Adams-Bashforth-2 stabilizing weight */
(PID.TID 0000.0001)                 1.000000000000000E-01
(PID.TID 0000.0001)     ;
(PID.TID 0000.0001) applyExchUV_early = /* Apply EXCH to U,V earlier in time-step */
(PID.TID 0000.0001)                   F
(PID.TID 0000.0001)     ;
(PID.TID 0000.0001) tauCD =   /* CD coupling time-scale ( s ) */
(PID.TID 0000.0001)                 4.000000000000000E+05
(PID.TID 0000.0001)     ;
(PID.TID 0000.0001) rCD =   /* Normalised CD coupling parameter */
(PID.TID 0000.0001)                 9.955000000000001E-01
(PID.TID 0000.0001)     ;
(PID.TID 0000.0001) epsAB_CD = /* AB-2 stabilizing weight for CD-scheme*/
(PID.TID 0000.0001)                 1.000000000000000E-01
(PID.TID 0000.0001)     ;
(PID.TID 0000.0001) pickupStrictlyMatch= /* stop if pickup do not strictly match */
(PID.TID 0000.0001)                   T
(PID.TID 0000.0001)     ;
(PID.TID 0000.0001) nIter0   =   /* Run starting timestep number */
(PID.TID 0000.0001)                       0
(PID.TID 0000.0001)     ;
(PID.TID 0000.0001) nTimeSteps = /* Number of timesteps */
(PID.TID 0000.0001)                      20
(PID.TID 0000.0001)     ;
(PID.TID 0000.0001) nEndIter =   /* Run ending timestep number */
(PID.TID 0000.0001)                      20
(PID.TID 0000.0001)     ;
(PID.TID 0000.0001) baseTime =   /* Model base time ( s ) */
(PID.TID 0000.0001)                 0.000000000000000E+00
(PID.TID 0000.0001)     ;
(PID.TID 0000.0001) startTime =  /* Run start time ( s ) */
(PID.TID 0000.0001)                 0.000000000000000E+00
(PID.TID 0000.0001)     ;
(PID.TID 0000.0001) endTime  =   /* Integration ending time ( s ) */
(PID.TID 0000.0001)                 3.600000000000000E+04
(PID.TID 0000.0001)     ;
(PID.TID 0000.0001) pChkPtFreq = /* Permanent restart/pickup file interval ( s ) */
(PID.TID 0000.0001)                 0.000000000000000E+00
(PID.TID 0000.0001)     ;
(PID.TID 0000.0001) chkPtFreq  = /* Rolling restart/pickup file interval ( s ) */
(PID.TID 0000.0001)                 0.000000000000000E+00
(PID.TID 0000.0001)     ;
(PID.TID 0000.0001) pickup_write_mdsio =   /* Model IO flag. */
(PID.TID 0000.0001)                   T
(PID.TID 0000.0001)     ;
(PID.TID 0000.0001) pickup_read_mdsio =   /* Model IO flag. */
(PID.TID 0000.0001)                   T
(PID.TID 0000.0001)     ;
(PID.TID 0000.0001) pickup_write_mnc =   /* Model IO flag. */
(PID.TID 0000.0001)                   F
(PID.TID 0000.0001)     ;
(PID.TID 0000.0001) pickup_read_mnc =   /* Model IO flag. */
(PID.TID 0000.0001)                   F
(PID.TID 0000.0001)     ;
(PID.TID 0000.0001) writePickupAtEnd =   /* Model IO flag. */
(PID.TID 0000.0001)                   T
(PID.TID 0000.0001)     ;
(PID.TID 0000.0001) dumpFreq =   /* Model state write out interval ( s ). */
(PID.TID 0000.0001)                 0.000000000000000E+00
(PID.TID 0000.0001)     ;
(PID.TID 0000.0001) dumpInitAndLast= /* write out Initial & Last iter. model state */
(PID.TID 0000.0001)                   T
(PID.TID 0000.0001)     ;
(PID.TID 0000.0001) snapshot_mdsio =   /* Model IO flag. */
(PID.TID 0000.0001)                   T
(PID.TID 0000.0001)     ;
(PID.TID 0000.0001) snapshot_mnc =   /* Model IO flag. */
(PID.TID 0000.0001)                   F
(PID.TID 0000.0001)     ;
(PID.TID 0000.0001) monitorFreq =   /* Monitor output interval ( s ). */
(PID.TID 0000.0001)                 1.000000000000000E+00
(PID.TID 0000.0001)     ;
(PID.TID 0000.0001) monitorSelect = /* select group of variables to monitor */
(PID.TID 0000.0001)                       2
(PID.TID 0000.0001)     ;
(PID.TID 0000.0001) monitor_stdio =   /* Model IO flag. */
(PID.TID 0000.0001)                   T
(PID.TID 0000.0001)     ;
(PID.TID 0000.0001) monitor_mnc =   /* Model IO flag. */
(PID.TID 0000.0001)                   F
(PID.TID 0000.0001)     ;
(PID.TID 0000.0001) externForcingPeriod =   /* forcing period (s) */
(PID.TID 0000.0001)                 0.000000000000000E+00
(PID.TID 0000.0001)     ;
(PID.TID 0000.0001) externForcingCycle =   /* period of the cyle (s). */
(PID.TID 0000.0001)                 0.000000000000000E+00
(PID.TID 0000.0001)     ;
(PID.TID 0000.0001) tauThetaClimRelax =   /* relaxation time scale (s) */
(PID.TID 0000.0001)                 0.000000000000000E+00
(PID.TID 0000.0001)     ;
(PID.TID 0000.0001) tauSaltClimRelax =   /* relaxation time scale (s) */
(PID.TID 0000.0001)                 0.000000000000000E+00
(PID.TID 0000.0001)     ;
(PID.TID 0000.0001) latBandClimRelax =   /* max. Lat. where relaxation */
(PID.TID 0000.0001)                 1.800000000000000E+02
(PID.TID 0000.0001)     ;
(PID.TID 0000.0001) //
(PID.TID 0000.0001) // Gridding paramters ( PARM04 in namelist )
(PID.TID 0000.0001) //
(PID.TID 0000.0001) usingCartesianGrid = /* Cartesian coordinates flag ( True/False ) */
(PID.TID 0000.0001)                   F
(PID.TID 0000.0001)     ;
(PID.TID 0000.0001) usingCylindricalGrid = /* Cylindrical coordinates flag ( True/False ) */
(PID.TID 0000.0001)                   F
(PID.TID 0000.0001)     ;
(PID.TID 0000.0001) usingSphericalPolarGrid = /* Spherical coordinates flag ( True/False ) */
(PID.TID 0000.0001)                   T
(PID.TID 0000.0001)     ;
(PID.TID 0000.0001) usingCurvilinearGrid = /* Curvilinear coordinates flag ( True/False ) */
(PID.TID 0000.0001)                   F
(PID.TID 0000.0001)     ;
(PID.TID 0000.0001) selectSigmaCoord = /* Hybrid-Sigma Vert. Coordinate option */
(PID.TID 0000.0001)                       0
(PID.TID 0000.0001)     ;
(PID.TID 0000.0001) rSigmaBnd = /* r/sigma transition ( units of r ==  m ) */
(PID.TID 0000.0001)                 1.234567000000000E+05
(PID.TID 0000.0001)     ;
(PID.TID 0000.0001) rkSign =   /* index orientation relative to vertical coordinate */
(PID.TID 0000.0001)                -1.000000000000000E+00
(PID.TID 0000.0001)     ;
(PID.TID 0000.0001) gravitySign = /* gravity orientation relative to vertical coordinate */
(PID.TID 0000.0001)                -1.000000000000000E+00
(PID.TID 0000.0001)     ;
(PID.TID 0000.0001) seaLev_Z =  /* reference height of sea-level [m] */
(PID.TID 0000.0001)                 0.000000000000000E+00
(PID.TID 0000.0001)     ;
(PID.TID 0000.0001) top_Pres =  /* reference pressure at the top [Pa] */
(PID.TID 0000.0001)                 0.000000000000000E+00
(PID.TID 0000.0001)     ;
(PID.TID 0000.0001) mass2rUnit = /* convert mass per unit area [kg/m2] to r-units [m] */
(PID.TID 0000.0001)                 9.708737864077669E-04
(PID.TID 0000.0001)     ;
(PID.TID 0000.0001) rUnit2mass = /* convert r-units [m] to mass per unit area [kg/m2] */
(PID.TID 0000.0001)                 1.030000000000000E+03
(PID.TID 0000.0001)     ;
(PID.TID 0000.0001) drC =   /* C spacing ( units of r ) */
(PID.TID 0000.0001)                 1.500000000000000E+01,      /* K =  1 */
(PID.TID 0000.0001)    29 @  3.000000000000000E+01,             /* K =  2: 30 */
(PID.TID 0000.0001)                 1.500000000000000E+01       /* K = 31 */
(PID.TID 0000.0001)     ;
(PID.TID 0000.0001) drF =   /* W spacing ( units of r ) */
(PID.TID 0000.0001)    30 @  3.000000000000000E+01              /* K =  1: 30 */
(PID.TID 0000.0001)     ;
(PID.TID 0000.0001) delX = /* U spacing ( m - cartesian, degrees - spherical ) */
(PID.TID 0000.0001)    50 @  3.000000000000000E-01              /* I =  1: 50 */
(PID.TID 0000.0001)     ;
(PID.TID 0000.0001) delY = /* V spacing ( m - cartesian, degrees - spherical ) */
(PID.TID 0000.0001)   100 @  1.000000000000000E-01              /* J =  1:100 */
(PID.TID 0000.0001)     ;
(PID.TID 0000.0001) xgOrigin = /* X-axis origin of West  edge (cartesian: m, lat-lon: deg) */
(PID.TID 0000.0001)                 0.000000000000000E+00
(PID.TID 0000.0001)     ;
(PID.TID 0000.0001) ygOrigin = /* Y-axis origin of South edge (cartesian: m, lat-lon: deg) */
(PID.TID 0000.0001)                -8.000000000000000E+01
(PID.TID 0000.0001)     ;
(PID.TID 0000.0001) rSphere =  /* Radius ( ignored - cartesian, m - spherical ) */
(PID.TID 0000.0001)                 6.370000000000000E+06
(PID.TID 0000.0001)     ;
(PID.TID 0000.0001) deepAtmosphere = /* Deep/Shallow Atmosphere flag (True/False) */
(PID.TID 0000.0001)                   F
(PID.TID 0000.0001)     ;
(PID.TID 0000.0001) xC =  /* xC(:,1,:,1) : P-point X coord ( deg. or m if cartesian) */
(PID.TID 0000.0001)                 1.500000000000001E-01,      /* I =  1 */
(PID.TID 0000.0001)                 4.500000000000001E-01,      /* I =  2 */
(PID.TID 0000.0001)                 7.500000000000002E-01,      /* I =  3 */
(PID.TID 0000.0001)                 1.050000000000000E+00,      /* I =  4 */
(PID.TID 0000.0001)                 1.350000000000000E+00,      /* I =  5 */
(PID.TID 0000.0001)                 1.650000000000000E+00,      /* I =  6 */
(PID.TID 0000.0001)                 1.950000000000000E+00,      /* I =  7 */
(PID.TID 0000.0001)                 2.250000000000000E+00,      /* I =  8 */
(PID.TID 0000.0001)                 2.550000000000000E+00,      /* I =  9 */
(PID.TID 0000.0001)                 2.850000000000000E+00,      /* I = 10 */
(PID.TID 0000.0001)                 3.149999999999999E+00,      /* I = 11 */
(PID.TID 0000.0001)                 3.449999999999999E+00,      /* I = 12 */
(PID.TID 0000.0001)                 3.749999999999999E+00,      /* I = 13 */
(PID.TID 0000.0001)                 4.049999999999999E+00,      /* I = 14 */
(PID.TID 0000.0001)                 4.350000000000000E+00,      /* I = 15 */
(PID.TID 0000.0001)                 4.649999999999999E+00,      /* I = 16 */
(PID.TID 0000.0001)                 4.949999999999999E+00,      /* I = 17 */
(PID.TID 0000.0001)                 5.249999999999998E+00,      /* I = 18 */
(PID.TID 0000.0001)                 5.549999999999999E+00,      /* I = 19 */
(PID.TID 0000.0001)                 5.849999999999998E+00,      /* I = 20 */
(PID.TID 0000.0001)                 6.149999999999999E+00,      /* I = 21 */
(PID.TID 0000.0001)                 6.449999999999998E+00,      /* I = 22 */
(PID.TID 0000.0001)                 6.749999999999998E+00,      /* I = 23 */
(PID.TID 0000.0001)                 7.049999999999997E+00,      /* I = 24 */
(PID.TID 0000.0001)                 7.349999999999997E+00,      /* I = 25 */
(PID.TID 0000.0001)                 7.649999999999997E+00,      /* I = 26 */
(PID.TID 0000.0001)                 7.949999999999998E+00,      /* I = 27 */
(PID.TID 0000.0001)                 8.249999999999998E+00,      /* I = 28 */
(PID.TID 0000.0001)                 8.549999999999999E+00,      /* I = 29 */
(PID.TID 0000.0001)                 8.850000000000000E+00,      /* I = 30 */
(PID.TID 0000.0001)                 9.150000000000000E+00,      /* I = 31 */
(PID.TID 0000.0001)                 9.450000000000001E+00,      /* I = 32 */
(PID.TID 0000.0001)                 9.750000000000002E+00,      /* I = 33 */
(PID.TID 0000.0001)                 1.005000000000000E+01,      /* I = 34 */
(PID.TID 0000.0001)                 1.035000000000000E+01,      /* I = 35 */
(PID.TID 0000.0001)                 1.065000000000000E+01,      /* I = 36 */
(PID.TID 0000.0001)                 1.095000000000001E+01,      /* I = 37 */
(PID.TID 0000.0001)                 1.125000000000001E+01,      /* I = 38 */
(PID.TID 0000.0001)                 1.155000000000000E+01,      /* I = 39 */
(PID.TID 0000.0001)                 1.185000000000001E+01,      /* I = 40 */
(PID.TID 0000.0001)                 1.215000000000001E+01,      /* I = 41 */
(PID.TID 0000.0001)                 1.245000000000001E+01,      /* I = 42 */
(PID.TID 0000.0001)                 1.275000000000001E+01,      /* I = 43 */
(PID.TID 0000.0001)                 1.305000000000001E+01,      /* I = 44 */
(PID.TID 0000.0001)                 1.335000000000001E+01,      /* I = 45 */
(PID.TID 0000.0001)                 1.365000000000001E+01,      /* I = 46 */
(PID.TID 0000.0001)                 1.395000000000001E+01,      /* I = 47 */
(PID.TID 0000.0001)                 1.425000000000001E+01,      /* I = 48 */
(PID.TID 0000.0001)                 1.455000000000001E+01,      /* I = 49 */
(PID.TID 0000.0001)                 1.485000000000001E+01       /* I = 50 */
(PID.TID 0000.0001)     ;
(PID.TID 0000.0001) yC =  /* yC(1,:,1,:) : P-point Y coord ( deg. or m if cartesian) */
(PID.TID 0000.0001)                -7.995000000000000E+01,      /* J =  1 */
(PID.TID 0000.0001)                -7.985000000000001E+01,      /* J =  2 */
(PID.TID 0000.0001)                -7.975000000000001E+01,      /* J =  3 */
(PID.TID 0000.0001)      . . .
(PID.TID 0000.0001)                -7.775000000000013E+01,      /* J = 23 */
(PID.TID 0000.0001)                -7.765000000000013E+01,      /* J = 24 */
(PID.TID 0000.0001)                -7.755000000000014E+01,      /* J = 25 */
(PID.TID 0000.0001)                -7.745000000000014E+01,      /* J = 26 */
(PID.TID 0000.0001)                -7.735000000000015E+01,      /* J = 27 */
(PID.TID 0000.0001)                -7.725000000000016E+01,      /* J = 28 */
(PID.TID 0000.0001)      . . .
(PID.TID 0000.0001)                -7.525000000000027E+01,      /* J = 48 */
(PID.TID 0000.0001)                -7.515000000000028E+01,      /* J = 49 */
(PID.TID 0000.0001)                -7.505000000000028E+01,      /* J = 50 */
(PID.TID 0000.0001)                -7.495000000000029E+01,      /* J = 51 */
(PID.TID 0000.0001)                -7.485000000000029E+01,      /* J = 52 */
(PID.TID 0000.0001)                -7.475000000000030E+01,      /* J = 53 */
(PID.TID 0000.0001)      . . .
(PID.TID 0000.0001)                -7.275000000000041E+01,      /* J = 73 */
(PID.TID 0000.0001)                -7.265000000000042E+01,      /* J = 74 */
(PID.TID 0000.0001)                -7.255000000000042E+01,      /* J = 75 */
(PID.TID 0000.0001)                -7.245000000000043E+01,      /* J = 76 */
(PID.TID 0000.0001)                -7.235000000000043E+01,      /* J = 77 */
(PID.TID 0000.0001)                -7.225000000000044E+01,      /* J = 78 */
(PID.TID 0000.0001)      . . .
(PID.TID 0000.0001)                -7.025000000000055E+01,      /* J = 98 */
(PID.TID 0000.0001)                -7.015000000000056E+01,      /* J = 99 */
(PID.TID 0000.0001)                -7.005000000000057E+01       /* J =100 */
(PID.TID 0000.0001)     ;
(PID.TID 0000.0001) rcoord = /* P-point R coordinate (  units of r ) */
(PID.TID 0000.0001)                -1.500000000000000E+01,      /* K =  1 */
(PID.TID 0000.0001)                -4.500000000000000E+01,      /* K =  2 */
(PID.TID 0000.0001)                -7.500000000000000E+01,      /* K =  3 */
(PID.TID 0000.0001)                -1.050000000000000E+02,      /* K =  4 */
(PID.TID 0000.0001)                -1.350000000000000E+02,      /* K =  5 */
(PID.TID 0000.0001)                -1.650000000000000E+02,      /* K =  6 */
(PID.TID 0000.0001)                -1.950000000000000E+02,      /* K =  7 */
(PID.TID 0000.0001)                -2.250000000000000E+02,      /* K =  8 */
(PID.TID 0000.0001)                -2.550000000000000E+02,      /* K =  9 */
(PID.TID 0000.0001)                -2.850000000000000E+02,      /* K = 10 */
(PID.TID 0000.0001)                -3.150000000000000E+02,      /* K = 11 */
(PID.TID 0000.0001)                -3.450000000000000E+02,      /* K = 12 */
(PID.TID 0000.0001)                -3.750000000000000E+02,      /* K = 13 */
(PID.TID 0000.0001)                -4.050000000000000E+02,      /* K = 14 */
(PID.TID 0000.0001)                -4.350000000000000E+02,      /* K = 15 */
(PID.TID 0000.0001)                -4.650000000000000E+02,      /* K = 16 */
(PID.TID 0000.0001)                -4.950000000000000E+02,      /* K = 17 */
(PID.TID 0000.0001)                -5.250000000000000E+02,      /* K = 18 */
(PID.TID 0000.0001)                -5.550000000000000E+02,      /* K = 19 */
(PID.TID 0000.0001)                -5.850000000000000E+02,      /* K = 20 */
(PID.TID 0000.0001)                -6.150000000000000E+02,      /* K = 21 */
(PID.TID 0000.0001)                -6.450000000000000E+02,      /* K = 22 */
(PID.TID 0000.0001)                -6.750000000000000E+02,      /* K = 23 */
(PID.TID 0000.0001)                -7.050000000000000E+02,      /* K = 24 */
(PID.TID 0000.0001)                -7.350000000000000E+02,      /* K = 25 */
(PID.TID 0000.0001)                -7.650000000000000E+02,      /* K = 26 */
(PID.TID 0000.0001)                -7.950000000000000E+02,      /* K = 27 */
(PID.TID 0000.0001)                -8.250000000000000E+02,      /* K = 28 */
(PID.TID 0000.0001)                -8.550000000000000E+02,      /* K = 29 */
(PID.TID 0000.0001)                -8.850000000000000E+02       /* K = 30 */
(PID.TID 0000.0001)     ;
(PID.TID 0000.0001) rF =   /* W-Interf. R coordinate (  units of r ) */
(PID.TID 0000.0001)                 0.000000000000000E+00,      /* K =  1 */
(PID.TID 0000.0001)                -3.000000000000000E+01,      /* K =  2 */
(PID.TID 0000.0001)                -6.000000000000000E+01,      /* K =  3 */
(PID.TID 0000.0001)                -9.000000000000000E+01,      /* K =  4 */
(PID.TID 0000.0001)                -1.200000000000000E+02,      /* K =  5 */
(PID.TID 0000.0001)                -1.500000000000000E+02,      /* K =  6 */
(PID.TID 0000.0001)                -1.800000000000000E+02,      /* K =  7 */
(PID.TID 0000.0001)                -2.100000000000000E+02,      /* K =  8 */
(PID.TID 0000.0001)                -2.400000000000000E+02,      /* K =  9 */
(PID.TID 0000.0001)                -2.700000000000000E+02,      /* K = 10 */
(PID.TID 0000.0001)                -3.000000000000000E+02,      /* K = 11 */
(PID.TID 0000.0001)                -3.300000000000000E+02,      /* K = 12 */
(PID.TID 0000.0001)                -3.600000000000000E+02,      /* K = 13 */
(PID.TID 0000.0001)                -3.900000000000000E+02,      /* K = 14 */
(PID.TID 0000.0001)                -4.200000000000000E+02,      /* K = 15 */
(PID.TID 0000.0001)                -4.500000000000000E+02,      /* K = 16 */
(PID.TID 0000.0001)                -4.800000000000000E+02,      /* K = 17 */
(PID.TID 0000.0001)                -5.100000000000000E+02,      /* K = 18 */
(PID.TID 0000.0001)                -5.400000000000000E+02,      /* K = 19 */
(PID.TID 0000.0001)                -5.700000000000000E+02,      /* K = 20 */
(PID.TID 0000.0001)                -6.000000000000000E+02,      /* K = 21 */
(PID.TID 0000.0001)                -6.300000000000000E+02,      /* K = 22 */
(PID.TID 0000.0001)                -6.600000000000000E+02,      /* K = 23 */
(PID.TID 0000.0001)                -6.900000000000000E+02,      /* K = 24 */
(PID.TID 0000.0001)                -7.200000000000000E+02,      /* K = 25 */
(PID.TID 0000.0001)                -7.500000000000000E+02,      /* K = 26 */
(PID.TID 0000.0001)                -7.800000000000000E+02,      /* K = 27 */
(PID.TID 0000.0001)                -8.100000000000000E+02,      /* K = 28 */
(PID.TID 0000.0001)                -8.400000000000000E+02,      /* K = 29 */
(PID.TID 0000.0001)                -8.700000000000000E+02,      /* K = 30 */
(PID.TID 0000.0001)                -9.000000000000000E+02       /* K = 31 */
(PID.TID 0000.0001)     ;
(PID.TID 0000.0001) deepFacC = /* deep-model grid factor @ cell-Center (-) */
(PID.TID 0000.0001)    30 @  1.000000000000000E+00              /* K =  1: 30 */
(PID.TID 0000.0001)     ;
(PID.TID 0000.0001) deepFacF = /* deep-model grid factor @ W-Interface (-) */
(PID.TID 0000.0001)    31 @  1.000000000000000E+00              /* K =  1: 31 */
(PID.TID 0000.0001)     ;
(PID.TID 0000.0001) rVel2wUnit = /* convert units: rVel -> wSpeed (=1 if z-coord)*/
(PID.TID 0000.0001)    31 @  1.000000000000000E+00              /* K =  1: 31 */
(PID.TID 0000.0001)     ;
(PID.TID 0000.0001) wUnit2rVel = /* convert units: wSpeed -> rVel (=1 if z-coord)*/
(PID.TID 0000.0001)    31 @  1.000000000000000E+00              /* K =  1: 31 */
(PID.TID 0000.0001)     ;
(PID.TID 0000.0001) dBdrRef = /* Vertical grad. of reference buoyancy [(m/s/r)^2] */
(PID.TID 0000.0001)    30 @  0.000000000000000E+00              /* K =  1: 30 */
(PID.TID 0000.0001)     ;
(PID.TID 0000.0001) rotateGrid = /* use rotated grid ( True/False ) */
(PID.TID 0000.0001)                   F
(PID.TID 0000.0001)     ;
(PID.TID 0000.0001) phiEuler = /* Euler angle, rotation about original z-coordinate [rad] */
(PID.TID 0000.0001)                 0.000000000000000E+00
(PID.TID 0000.0001)     ;
(PID.TID 0000.0001) thetaEuler = /* Euler angle, rotation about new x-coordinate [rad] */
(PID.TID 0000.0001)                 0.000000000000000E+00
(PID.TID 0000.0001)     ;
(PID.TID 0000.0001) psiEuler = /* Euler angle, rotation about new z-coordinate [rad] */
(PID.TID 0000.0001)                 0.000000000000000E+00
(PID.TID 0000.0001)     ;
(PID.TID 0000.0001) dxF =  /* dxF(:,1,:,1) ( units: m ) */
(PID.TID 0000.0001)    50 @  5.820391490558872E+03              /* I =  1: 50 */
(PID.TID 0000.0001)     ;
(PID.TID 0000.0001) dxF =  /* dxF(1,:,1,:) ( units: m ) */
(PID.TID 0000.0001)                 5.820391490558872E+03,      /* J =  1 */
(PID.TID 0000.0001)                 5.877701765291692E+03,      /* J =  2 */
(PID.TID 0000.0001)                 5.934994135525598E+03,      /* J =  3 */
(PID.TID 0000.0001)      . . .
(PID.TID 0000.0001)                 7.076813247621209E+03,      /* J = 23 */
(PID.TID 0000.0001)                 7.133689397375063E+03,      /* J = 24 */
(PID.TID 0000.0001)                 7.190543816673855E+03,      /* J = 25 */
(PID.TID 0000.0001)                 7.247376332329164E+03,      /* J = 26 */
(PID.TID 0000.0001)                 7.304186771219292E+03,      /* J = 27 */
(PID.TID 0000.0001)                 7.360974960289787E+03,      /* J = 28 */
(PID.TID 0000.0001)      . . .
(PID.TID 0000.0001)                 8.491800393599013E+03,      /* J = 48 */
(PID.TID 0000.0001)                 8.548081485571185E+03,      /* J = 49 */
(PID.TID 0000.0001)                 8.604336538604706E+03,      /* J = 50 */
(PID.TID 0000.0001)                 8.660565381336924E+03,      /* J = 51 */
(PID.TID 0000.0001)                 8.716767842485036E+03,      /* J = 52 */
(PID.TID 0000.0001)                 8.772943750846600E+03,      /* J = 53 */
(PID.TID 0000.0001)      . . .
(PID.TID 0000.0001)                 9.890622914885218E+03,      /* J = 73 */
(PID.TID 0000.0001)                 9.946201814818334E+03,      /* J = 74 */
(PID.TID 0000.0001)                 1.000175041689580E+04,      /* J = 75 */
(PID.TID 0000.0001)                 1.005726855190695E+04,      /* J = 76 */
(PID.TID 0000.0001)                 1.011275605073392E+04,      /* J = 77 */
(PID.TID 0000.0001)                 1.016821274435215E+04,      /* J = 78 */
(PID.TID 0000.0001)      . . .
(PID.TID 0000.0001)                 1.127061807330668E+04,      /* J = 98 */
(PID.TID 0000.0001)                 1.132538898360582E+04,      /* J = 99 */
(PID.TID 0000.0001)                 1.138012539480601E+04       /* J =100 */
(PID.TID 0000.0001)     ;
(PID.TID 0000.0001) dyF =  /* dyF(:,1,:,1) ( units: m ) */
(PID.TID 0000.0001)    50 @  1.111774733520388E+04              /* I =  1: 50 */
(PID.TID 0000.0001)     ;
(PID.TID 0000.0001) dyF =  /* dyF(1,:,1,:) ( units: m ) */
(PID.TID 0000.0001)   100 @  1.111774733520388E+04              /* J =  1:100 */
(PID.TID 0000.0001)     ;
(PID.TID 0000.0001) dxG =  /* dxG(:,1,:,1) ( units: m ) */
(PID.TID 0000.0001)    50 @  5.791729693558576E+03              /* I =  1: 50 */
(PID.TID 0000.0001)     ;
(PID.TID 0000.0001) dxG =  /* dxG(1,:,1,:) ( units: m ) */
(PID.TID 0000.0001)                 5.791729693558576E+03,      /* J =  1 */
(PID.TID 0000.0001)                 5.849048855077854E+03,      /* J =  2 */
(PID.TID 0000.0001)                 5.906350199379949E+03,      /* J =  3 */
(PID.TID 0000.0001)      . . .
(PID.TID 0000.0001)                 7.048367077963129E+03,      /* J = 23 */
(PID.TID 0000.0001)                 7.105254027978149E+03,      /* J = 24 */
(PID.TID 0000.0001)                 7.162119334157175E+03,      /* J = 25 */
(PID.TID 0000.0001)                 7.218962823278620E+03,      /* J = 26 */
(PID.TID 0000.0001)                 7.275784322187360E+03,      /* J = 27 */
(PID.TID 0000.0001)                 7.332583657795253E+03,      /* J = 28 */
(PID.TID 0000.0001)      . . .
(PID.TID 0000.0001)                 8.463650136583461E+03,      /* J = 48 */
(PID.TID 0000.0001)                 8.519944183739159E+03,      /* J = 49 */
(PID.TID 0000.0001)                 8.576212277667308E+03,      /* J = 50 */
(PID.TID 0000.0001)                 8.632454246965530E+03,      /* J = 51 */
(PID.TID 0000.0001)                 8.688669920311038E+03,      /* J = 52 */
(PID.TID 0000.0001)                 8.744859126461139E+03,      /* J = 53 */
(PID.TID 0000.0001)      . . .
(PID.TID 0000.0001)                 9.862822156126382E+03,      /* J = 73 */
(PID.TID 0000.0001)                 9.918416141504455E+03,      /* J = 74 */
(PID.TID 0000.0001)                 9.973979913666863E+03,      /* J = 75 */
(PID.TID 0000.0001)                 1.002951330335672E+04,      /* J = 76 */
(PID.TID 0000.0001)                 1.008501614140969E+04,      /* J = 77 */
(PID.TID 0000.0001)                 1.014048825875450E+04,      /* J = 78 */
(PID.TID 0000.0001)      . . .
(PID.TID 0000.0001)                 1.124321973312895E+04,      /* J = 98 */
(PID.TID 0000.0001)                 1.129800783041847E+04,      /* J = 99 */
(PID.TID 0000.0001)                 1.135276151201679E+04       /* J =100 */
(PID.TID 0000.0001)     ;
(PID.TID 0000.0001) dyG =  /* dyG(:,1,:,1) ( units: m ) */
(PID.TID 0000.0001)    50 @  1.111774733520388E+04              /* I =  1: 50 */
(PID.TID 0000.0001)     ;
(PID.TID 0000.0001) dyG =  /* dyG(1,:,1,:) ( units: m ) */
(PID.TID 0000.0001)   100 @  1.111774733520388E+04              /* J =  1:100 */
(PID.TID 0000.0001)     ;
(PID.TID 0000.0001) dxC =  /* dxC(:,1,:,1) ( units: m ) */
(PID.TID 0000.0001)    50 @  5.820391490558872E+03              /* I =  1: 50 */
(PID.TID 0000.0001)     ;
(PID.TID 0000.0001) dxC =  /* dxC(1,:,1,:) ( units: m ) */
(PID.TID 0000.0001)                 5.820391490558872E+03,      /* J =  1 */
(PID.TID 0000.0001)                 5.877701765291692E+03,      /* J =  2 */
(PID.TID 0000.0001)                 5.934994135525598E+03,      /* J =  3 */
(PID.TID 0000.0001)      . . .
(PID.TID 0000.0001)                 7.076813247621209E+03,      /* J = 23 */
(PID.TID 0000.0001)                 7.133689397375063E+03,      /* J = 24 */
(PID.TID 0000.0001)                 7.190543816673855E+03,      /* J = 25 */
(PID.TID 0000.0001)                 7.247376332329164E+03,      /* J = 26 */
(PID.TID 0000.0001)                 7.304186771219292E+03,      /* J = 27 */
(PID.TID 0000.0001)                 7.360974960289787E+03,      /* J = 28 */
(PID.TID 0000.0001)      . . .
(PID.TID 0000.0001)                 8.491800393599013E+03,      /* J = 48 */
(PID.TID 0000.0001)                 8.548081485571185E+03,      /* J = 49 */
(PID.TID 0000.0001)                 8.604336538604706E+03,      /* J = 50 */
(PID.TID 0000.0001)                 8.660565381336924E+03,      /* J = 51 */
(PID.TID 0000.0001)                 8.716767842485036E+03,      /* J = 52 */
(PID.TID 0000.0001)                 8.772943750846600E+03,      /* J = 53 */
(PID.TID 0000.0001)      . . .
(PID.TID 0000.0001)                 9.890622914885218E+03,      /* J = 73 */
(PID.TID 0000.0001)                 9.946201814818334E+03,      /* J = 74 */
(PID.TID 0000.0001)                 1.000175041689580E+04,      /* J = 75 */
(PID.TID 0000.0001)                 1.005726855190695E+04,      /* J = 76 */
(PID.TID 0000.0001)                 1.011275605073392E+04,      /* J = 77 */
(PID.TID 0000.0001)                 1.016821274435215E+04,      /* J = 78 */
(PID.TID 0000.0001)      . . .
(PID.TID 0000.0001)                 1.127061807330668E+04,      /* J = 98 */
(PID.TID 0000.0001)                 1.132538898360582E+04,      /* J = 99 */
(PID.TID 0000.0001)                 1.138012539480601E+04       /* J =100 */
(PID.TID 0000.0001)     ;
(PID.TID 0000.0001) dyC =  /* dyC(:,1,:,1) ( units: m ) */
(PID.TID 0000.0001)    50 @  1.111774733520388E+04              /* I =  1: 50 */
(PID.TID 0000.0001)     ;
(PID.TID 0000.0001) dyC =  /* dyC(1,:,1,:) ( units: m ) */
(PID.TID 0000.0001)   100 @  1.111774733520388E+04              /* J =  1:100 */
(PID.TID 0000.0001)     ;
(PID.TID 0000.0001) dxV =  /* dxV(:,1,:,1) ( units: m ) */
(PID.TID 0000.0001)    50 @  5.791729693558576E+03              /* I =  1: 50 */
(PID.TID 0000.0001)     ;
(PID.TID 0000.0001) dxV =  /* dxV(1,:,1,:) ( units: m ) */
(PID.TID 0000.0001)                 5.791729693558576E+03,      /* J =  1 */
(PID.TID 0000.0001)                 5.849048855077854E+03,      /* J =  2 */
(PID.TID 0000.0001)                 5.906350199379949E+03,      /* J =  3 */
(PID.TID 0000.0001)      . . .
(PID.TID 0000.0001)                 7.048367077963129E+03,      /* J = 23 */
(PID.TID 0000.0001)                 7.105254027978149E+03,      /* J = 24 */
(PID.TID 0000.0001)                 7.162119334157175E+03,      /* J = 25 */
(PID.TID 0000.0001)                 7.218962823278620E+03,      /* J = 26 */
(PID.TID 0000.0001)                 7.275784322187360E+03,      /* J = 27 */
(PID.TID 0000.0001)                 7.332583657795253E+03,      /* J = 28 */
(PID.TID 0000.0001)      . . .
(PID.TID 0000.0001)                 8.463650136583461E+03,      /* J = 48 */
(PID.TID 0000.0001)                 8.519944183739159E+03,      /* J = 49 */
(PID.TID 0000.0001)                 8.576212277667308E+03,      /* J = 50 */
(PID.TID 0000.0001)                 8.632454246965530E+03,      /* J = 51 */
(PID.TID 0000.0001)                 8.688669920311038E+03,      /* J = 52 */
(PID.TID 0000.0001)                 8.744859126461139E+03,      /* J = 53 */
(PID.TID 0000.0001)      . . .
(PID.TID 0000.0001)                 9.862822156126382E+03,      /* J = 73 */
(PID.TID 0000.0001)                 9.918416141504455E+03,      /* J = 74 */
(PID.TID 0000.0001)                 9.973979913666863E+03,      /* J = 75 */
(PID.TID 0000.0001)                 1.002951330335672E+04,      /* J = 76 */
(PID.TID 0000.0001)                 1.008501614140969E+04,      /* J = 77 */
(PID.TID 0000.0001)                 1.014048825875450E+04,      /* J = 78 */
(PID.TID 0000.0001)      . . .
(PID.TID 0000.0001)                 1.124321973312895E+04,      /* J = 98 */
(PID.TID 0000.0001)                 1.129800783041847E+04,      /* J = 99 */
(PID.TID 0000.0001)                 1.135276151201679E+04       /* J =100 */
(PID.TID 0000.0001)     ;
(PID.TID 0000.0001) dyU =  /* dyU(:,1,:,1) ( units: m ) */
(PID.TID 0000.0001)    50 @  1.111774733520388E+04              /* I =  1: 50 */
(PID.TID 0000.0001)     ;
(PID.TID 0000.0001) dyU =  /* dyU(1,:,1,:) ( units: m ) */
(PID.TID 0000.0001)   100 @  1.111774733520388E+04              /* J =  1:100 */
(PID.TID 0000.0001)     ;
(PID.TID 0000.0001) rA  =  /* rA (:,1,:,1) ( units: m^2 ) */
(PID.TID 0000.0001)    50 @  6.470963377080289E+07              /* I =  1: 50 */
(PID.TID 0000.0001)     ;
(PID.TID 0000.0001) rA  =  /* rA (1,:,1,:) ( units: m^2 ) */
(PID.TID 0000.0001)                 6.470963377080289E+07,      /* J =  1 */
(PID.TID 0000.0001)                 6.534679484410104E+07,      /* J =  2 */
(PID.TID 0000.0001)                 6.598375685977945E+07,      /* J =  3 */
(PID.TID 0000.0001)      . . .
(PID.TID 0000.0001)                 7.867821163932665E+07,      /* J = 23 */
(PID.TID 0000.0001)                 7.931054622142966E+07,      /* J = 24 */
(PID.TID 0000.0001)                 7.994263920984067E+07,      /* J = 25 */
(PID.TID 0000.0001)                 8.057448867913349E+07,      /* J = 26 */
(PID.TID 0000.0001)                 8.120609270456599E+07,      /* J = 27 */
(PID.TID 0000.0001)                 8.183744936212724E+07,      /* J = 28 */
(PID.TID 0000.0001)      . . .
(PID.TID 0000.0001)                 9.440967921416211E+07,      /* J = 48 */
(PID.TID 0000.0001)                 9.503539809503193E+07,      /* J = 49 */
(PID.TID 0000.0001)                 9.566082748163140E+07,      /* J = 50 */
(PID.TID 0000.0001)                 9.628596546870193E+07,      /* J = 51 */
(PID.TID 0000.0001)                 9.691081015209354E+07,      /* J = 52 */
(PID.TID 0000.0001)                 9.753535962826957E+07,      /* J = 53 */
(PID.TID 0000.0001)      . . .
(PID.TID 0000.0001)                 1.099614325987181E+08,      /* J = 73 */
(PID.TID 0000.0001)                 1.105793446869293E+08,      /* J = 74 */
(PID.TID 0000.0001)                 1.111969199312560E+08,      /* J = 75 */
(PID.TID 0000.0001)                 1.118141564504991E+08,      /* J = 76 */
(PID.TID 0000.0001)                 1.124310523644033E+08,      /* J = 77 */
(PID.TID 0000.0001)                 1.130476057938687E+08,      /* J = 78 */
(PID.TID 0000.0001)      . . .
(PID.TID 0000.0001)                 1.253038681465364E+08,      /* J = 98 */
(PID.TID 0000.0001)                 1.259127972112936E+08,      /* J = 99 */
(PID.TID 0000.0001)                 1.265213427237870E+08       /* J =100 */
(PID.TID 0000.0001)     ;
(PID.TID 0000.0001) rAw =  /* rAw(:,1,:,1) ( units: m^2 ) */
(PID.TID 0000.0001)    50 @  6.470963377080289E+07              /* I =  1: 50 */
(PID.TID 0000.0001)     ;
(PID.TID 0000.0001) rAw =  /* rAw(1,:,1,:) ( units: m^2 ) */
(PID.TID 0000.0001)                 6.470963377080289E+07,      /* J =  1 */
(PID.TID 0000.0001)                 6.534679484410104E+07,      /* J =  2 */
(PID.TID 0000.0001)                 6.598375685977945E+07,      /* J =  3 */
(PID.TID 0000.0001)      . . .
(PID.TID 0000.0001)                 7.867821163932665E+07,      /* J = 23 */
(PID.TID 0000.0001)                 7.931054622142966E+07,      /* J = 24 */
(PID.TID 0000.0001)                 7.994263920984067E+07,      /* J = 25 */
(PID.TID 0000.0001)                 8.057448867913349E+07,      /* J = 26 */
(PID.TID 0000.0001)                 8.120609270456599E+07,      /* J = 27 */
(PID.TID 0000.0001)                 8.183744936212724E+07,      /* J = 28 */
(PID.TID 0000.0001)      . . .
(PID.TID 0000.0001)                 9.440967921416211E+07,      /* J = 48 */
(PID.TID 0000.0001)                 9.503539809503193E+07,      /* J = 49 */
(PID.TID 0000.0001)                 9.566082748163140E+07,      /* J = 50 */
(PID.TID 0000.0001)                 9.628596546870193E+07,      /* J = 51 */
(PID.TID 0000.0001)                 9.691081015209354E+07,      /* J = 52 */
(PID.TID 0000.0001)                 9.753535962826957E+07,      /* J = 53 */
(PID.TID 0000.0001)      . . .
(PID.TID 0000.0001)                 1.099614325987181E+08,      /* J = 73 */
(PID.TID 0000.0001)                 1.105793446869293E+08,      /* J = 74 */
(PID.TID 0000.0001)                 1.111969199312560E+08,      /* J = 75 */
(PID.TID 0000.0001)                 1.118141564504991E+08,      /* J = 76 */
(PID.TID 0000.0001)                 1.124310523644033E+08,      /* J = 77 */
(PID.TID 0000.0001)                 1.130476057938687E+08,      /* J = 78 */
(PID.TID 0000.0001)      . . .
(PID.TID 0000.0001)                 1.253038681465364E+08,      /* J = 98 */
(PID.TID 0000.0001)                 1.259127972112936E+08,      /* J = 99 */
(PID.TID 0000.0001)                 1.265213427237870E+08       /* J =100 */
(PID.TID 0000.0001)     ;
(PID.TID 0000.0001) rAs =  /* rAs(:,1,:,1) ( units: m^2 ) */
(PID.TID 0000.0001)    50 @  6.439097919401864E+07              /* I =  1: 50 */
(PID.TID 0000.0001)     ;
(PID.TID 0000.0001) rAs =  /* rAs(1,:,1,:) ( units: m^2 ) */
(PID.TID 0000.0001)                 6.439097919401864E+07,      /* J =  1 */
(PID.TID 0000.0001)                 6.502823906837179E+07,      /* J =  2 */
(PID.TID 0000.0001)                 6.566530085543716E+07,      /* J =  3 */
(PID.TID 0000.0001)      . . .
(PID.TID 0000.0001)                 7.836195435256335E+07,      /* J = 23 */
(PID.TID 0000.0001)                 7.899440900921808E+07,      /* J = 24 */
(PID.TID 0000.0001)                 7.962662303520055E+07,      /* J = 25 */
(PID.TID 0000.0001)                 8.025859450470714E+07,      /* J = 26 */
(PID.TID 0000.0001)                 8.089032149259475E+07,      /* J = 27 */
(PID.TID 0000.0001)                 8.152180207452223E+07,      /* J = 28 */
(PID.TID 0000.0001)      . . .
(PID.TID 0000.0001)                 9.409671180895932E+07,      /* J = 48 */
(PID.TID 0000.0001)                 9.472257472228888E+07,      /* J = 49 */
(PID.TID 0000.0001)                 9.534814909420149E+07,      /* J = 50 */
(PID.TID 0000.0001)                 9.597343301913190E+07,      /* J = 51 */
(PID.TID 0000.0001)                 9.659842459236403E+07,      /* J = 52 */
(PID.TID 0000.0001)                 9.722312190998378E+07,      /* J = 53 */
(PID.TID 0000.0001)      . . .
(PID.TID 0000.0001)                 1.096523508263446E+08,      /* J = 73 */
(PID.TID 0000.0001)                 1.102704306306916E+08,      /* J = 74 */
(PID.TID 0000.0001)                 1.108881745321664E+08,      /* J = 75 */
(PID.TID 0000.0001)                 1.115055806490511E+08,      /* J = 76 */
(PID.TID 0000.0001)                 1.121226471005947E+08,      /* J = 77 */
(PID.TID 0000.0001)                 1.127393720071080E+08,      /* J = 78 */
(PID.TID 0000.0001)      . . .
(PID.TID 0000.0001)                 1.249992603617116E+08,      /* J = 98 */
(PID.TID 0000.0001)                 1.256083805070198E+08,      /* J = 99 */
(PID.TID 0000.0001)                 1.262171180274426E+08       /* J =100 */
(PID.TID 0000.0001)     ;
(PID.TID 0000.0001) globalArea = /* Integrated horizontal Area (m^2) */
(PID.TID 0000.0001)                 4.665024516720074E+11
(PID.TID 0000.0001)     ;
(PID.TID 0000.0001) // =======================================================
(PID.TID 0000.0001) // End of Model config. summary
(PID.TID 0000.0001) // =======================================================
(PID.TID 0000.0001) 
(PID.TID 0000.0001) == Packages configuration : Check & print summary ==
(PID.TID 0000.0001) 
(PID.TID 0000.0001) SHELFICE_CHECK: #define ALLOW_SHELFICE
(PID.TID 0000.0001) 
(PID.TID 0000.0001) SHELFICE_CHECK: start of SHELFICE config. summary
(PID.TID 0000.0001) SHELFICEisOn = /* package is turned on */
(PID.TID 0000.0001)                   T
(PID.TID 0000.0001)     ;
(PID.TID 0000.0001) SHELFICEwriteState  = /* do simple standard output */
(PID.TID 0000.0001)                   T
(PID.TID 0000.0001)     ;
(PID.TID 0000.0001) SHELFICE_dump_mdsio = /* use mdsio for snapshots */
(PID.TID 0000.0001)                   T
(PID.TID 0000.0001)     ;
(PID.TID 0000.0001) SHELFICE_tave_mdsio = /* use mdsio for time averages */
(PID.TID 0000.0001)                   T
(PID.TID 0000.0001)     ;
(PID.TID 0000.0001) SHELFICE_dump_mnc   = /* use netcdf for snapshots */
(PID.TID 0000.0001)                   F
(PID.TID 0000.0001)     ;
(PID.TID 0000.0001) SHELFICE_tave_mnc   = /* use netcdf for time averages */
(PID.TID 0000.0001)                   F
(PID.TID 0000.0001)     ;
(PID.TID 0000.0001) SHELFICE_dumpFreq = /* analoguous to dumpFreq */
(PID.TID 0000.0001)                 0.000000000000000E+00
(PID.TID 0000.0001)     ;
(PID.TID 0000.0001) SHELFICE_taveFreq = /* analoguous to taveFreq */
(PID.TID 0000.0001)                 0.000000000000000E+00
(PID.TID 0000.0001)     ;
(PID.TID 0000.0001) useISOMIPTD = /* use simple isomip thermodynamics */
(PID.TID 0000.0001)                   T
(PID.TID 0000.0001)     ;
(PID.TID 0000.0001) SHELFICEconserve = /* use a conservative form of boundary conditions */
(PID.TID 0000.0001)                   F
(PID.TID 0000.0001)     ;
(PID.TID 0000.0001) SHELFICEboundaryLayer = /* use simple boundary layer scheme to suppress noise */
(PID.TID 0000.0001)                   T
(PID.TID 0000.0001)     ;
(PID.TID 0000.0001) SHELFICEadvDiffHeatFlux = /* use adv.-diff. instead of just diff. heat flux into the ice shelf */
(PID.TID 0000.0001)                   F
(PID.TID 0000.0001)     ;
(PID.TID 0000.0001) SHELFICEMassStepping = /* step forward ice shelf mass/thickness */
(PID.TID 0000.0001)                   F
(PID.TID 0000.0001)     ;
(PID.TID 0000.0001) no_slip_shelfice = /* use no slip boundary conditions */
(PID.TID 0000.0001)                   F
(PID.TID 0000.0001)     ;
(PID.TID 0000.0001) SHELFICEdragLinear    = /* linear drag coefficient */
(PID.TID 0000.0001)                 0.000000000000000E+00
(PID.TID 0000.0001)     ;
(PID.TID 0000.0001) SHELFICEdragQuadratic = /* quadratic drag coefficient */
(PID.TID 0000.0001)                 2.500000000000000E-03
(PID.TID 0000.0001)     ;
(PID.TID 0000.0001) SHELFICElatentHeat      = /* latent heat of ice */
(PID.TID 0000.0001)                 3.340000000000000E+05
(PID.TID 0000.0001)     ;
(PID.TID 0000.0001) SHELFICEheatCapacity_Cp = /* heat capacity of ice shelf */
(PID.TID 0000.0001)                 2.000000000000000E+03
(PID.TID 0000.0001)     ;
(PID.TID 0000.0001) rhoShelfice   = /* density of ice shelf */
(PID.TID 0000.0001)                 9.170000000000000E+02
(PID.TID 0000.0001)     ;
(PID.TID 0000.0001) SHELFICEkappa = /* thermal conductivity of ice shelf */
(PID.TID 0000.0001)                 1.540000000000000E-06
(PID.TID 0000.0001)     ;
(PID.TID 0000.0001) SHELFICEthetaSurface = /* surface temperature above i.s. */
(PID.TID 0000.0001)                -2.000000000000000E+01
(PID.TID 0000.0001)     ;
(PID.TID 0000.0001) SHELFICEheatTransCoeff = /* heat transfer coefficient */
(PID.TID 0000.0001)                 1.000000000000000E-04
(PID.TID 0000.0001)     ;
(PID.TID 0000.0001) SHELFICEsaltTransCoeff = /* salt transfer coefficient */
(PID.TID 0000.0001)                 5.050000000000000E-07
(PID.TID 0000.0001)     ;
(PID.TID 0000.0001) SHELFICEuseGammaFrict = /* use velocity dependent exchange coefficients */
(PID.TID 0000.0001)                   F
(PID.TID 0000.0001)     ;
(PID.TID 0000.0001) SHELFICEloadAnomalyFile = /* file name of loaded loadAnomaly field */
(PID.TID 0000.0001)               'phi0surf.exp1.jmd95z'
(PID.TID 0000.0001)     ;
(PID.TID 0000.0001) SHELFICEmassFile = /* file name of loaded mass field */
(PID.TID 0000.0001)               ''
(PID.TID 0000.0001)     ;
(PID.TID 0000.0001) SHELFICEtopoFile = /* file name of loaded under-ice topography */
(PID.TID 0000.0001)               'icetopo.exp1'
(PID.TID 0000.0001)     ;
(PID.TID 0000.0001) SHELFICEMassDynTendFile = /* file name of loaded dynamic mass tendency field */
(PID.TID 0000.0001)               ''
(PID.TID 0000.0001)     ;
(PID.TID 0000.0001) SHELFICE_CHECK: end of SHELFICE config. summary
(PID.TID 0000.0001) GAD_CHECK: #define ALLOW_GENERIC_ADVDIFF
(PID.TID 0000.0001) // =======================================================
(PID.TID 0000.0001) // Check Model config. (CONFIG_CHECK):
(PID.TID 0000.0001) // CONFIG_CHECK : Normal End
(PID.TID 0000.0001) // =======================================================
(PID.TID 0000.0001) 
(PID.TID 0000.0001) Start initial hydrostatic pressure computation
(PID.TID 0000.0001) Pressure is predetermined for buoyancyRelation OCEANIC
(PID.TID 0000.0001) 
(PID.TID 0000.0001) // =======================================================
(PID.TID 0000.0001) // Model current state
(PID.TID 0000.0001) // =======================================================
(PID.TID 0000.0001) 
(PID.TID 0000.0001) // =======================================================
(PID.TID 0000.0001) // Begin MONITOR dynamic field statistics
(PID.TID 0000.0001) // =======================================================
(PID.TID 0000.0001) %MON time_tsnumber                =                     0
(PID.TID 0000.0001) %MON time_secondsf                =   0.0000000000000E+00
(PID.TID 0000.0001) %MON dynstat_eta_max              =   0.0000000000000E+00
(PID.TID 0000.0001) %MON dynstat_eta_min              =   0.0000000000000E+00
(PID.TID 0000.0001) %MON dynstat_eta_mean             =   0.0000000000000E+00
(PID.TID 0000.0001) %MON dynstat_eta_sd               =   0.0000000000000E+00
(PID.TID 0000.0001) %MON dynstat_eta_del2             =   0.0000000000000E+00
(PID.TID 0000.0001) %MON dynstat_uvel_max             =   0.0000000000000E+00
(PID.TID 0000.0001) %MON dynstat_uvel_min             =   0.0000000000000E+00
(PID.TID 0000.0001) %MON dynstat_uvel_mean            =   0.0000000000000E+00
(PID.TID 0000.0001) %MON dynstat_uvel_sd              =   0.0000000000000E+00
(PID.TID 0000.0001) %MON dynstat_uvel_del2            =   0.0000000000000E+00
(PID.TID 0000.0001) %MON dynstat_vvel_max             =   0.0000000000000E+00
(PID.TID 0000.0001) %MON dynstat_vvel_min             =   0.0000000000000E+00
(PID.TID 0000.0001) %MON dynstat_vvel_mean            =   0.0000000000000E+00
(PID.TID 0000.0001) %MON dynstat_vvel_sd              =   0.0000000000000E+00
(PID.TID 0000.0001) %MON dynstat_vvel_del2            =   0.0000000000000E+00
(PID.TID 0000.0001) %MON dynstat_wvel_max             =  -0.0000000000000E+00
(PID.TID 0000.0001) %MON dynstat_wvel_min             =  -0.0000000000000E+00
(PID.TID 0000.0001) %MON dynstat_wvel_mean            =   0.0000000000000E+00
(PID.TID 0000.0001) %MON dynstat_wvel_sd              =   0.0000000000000E+00
(PID.TID 0000.0001) %MON dynstat_wvel_del2            =   0.0000000000000E+00
(PID.TID 0000.0001) %MON dynstat_theta_max            =  -1.9000000000000E+00
(PID.TID 0000.0001) %MON dynstat_theta_min            =  -1.9000000000000E+00
(PID.TID 0000.0001) %MON dynstat_theta_mean           =  -1.9000000000001E+00
(PID.TID 0000.0001) %MON dynstat_theta_sd             =   8.1268325402562E-14
(PID.TID 0000.0001) %MON dynstat_theta_del2           =   0.0000000000000E+00
(PID.TID 0000.0001) %MON dynstat_salt_max             =   3.4400000000000E+01
(PID.TID 0000.0001) %MON dynstat_salt_min             =   3.4400000000000E+01
(PID.TID 0000.0001) %MON dynstat_salt_mean            =   3.4400000000001E+01
(PID.TID 0000.0001) %MON dynstat_salt_sd              =   7.3185901783291E-13
(PID.TID 0000.0001) %MON dynstat_salt_del2            =   0.0000000000000E+00
(PID.TID 0000.0001) %MON trAdv_CFL_u_max              =   0.0000000000000E+00
(PID.TID 0000.0001) %MON trAdv_CFL_v_max              =   0.0000000000000E+00
(PID.TID 0000.0001) %MON trAdv_CFL_w_max              =   0.0000000000000E+00
(PID.TID 0000.0001) %MON advcfl_uvel_max              =   0.0000000000000E+00
(PID.TID 0000.0001) %MON advcfl_vvel_max              =   0.0000000000000E+00
(PID.TID 0000.0001) %MON advcfl_wvel_max              =   0.0000000000000E+00
(PID.TID 0000.0001) %MON advcfl_W_hf_max              =   0.0000000000000E+00
(PID.TID 0000.0001) %MON pe_b_mean                    =   0.0000000000000E+00
(PID.TID 0000.0001) %MON ke_max                       =   0.0000000000000E+00
(PID.TID 0000.0001) %MON ke_mean                      =   0.0000000000000E+00
(PID.TID 0000.0001) %MON ke_vol                       =   2.9241705273105E+14
(PID.TID 0000.0001) %MON vort_r_min                   =   0.0000000000000E+00
(PID.TID 0000.0001) %MON vort_r_max                   =   0.0000000000000E+00
(PID.TID 0000.0001) %MON vort_a_mean                  =  -1.4007437277914E-04
(PID.TID 0000.0001) %MON vort_a_sd                    =   1.7682771475900E-06
(PID.TID 0000.0001) %MON vort_p_mean                  =  -1.5039772194953E-04
(PID.TID 0000.0001) %MON vort_p_sd                    =   8.7081213929730E-05
(PID.TID 0000.0001) %MON surfExpan_theta_mean         =   0.0000000000000E+00
(PID.TID 0000.0001) %MON surfExpan_salt_mean          =   0.0000000000000E+00
(PID.TID 0000.0001) // =======================================================
(PID.TID 0000.0001) // End MONITOR dynamic field statistics
(PID.TID 0000.0001) // =======================================================
(PID.TID 0000.0001) SOLVE_FOR_PRESSURE: putPmEinXvector =    F
(PID.TID 0000.0001) SOLVE_FOR_PRESSURE: zeroPsNH=    F , zeroMeanPnh=    F
(PID.TID 0000.0001) SOLVE_FOR_PRESSURE: oldFreeSurfTerm =    F
 cg2d: Sum(rhs),rhsMax =   2.04281036531029E-14  2.93733620583064E-13
(PID.TID 0000.0001)      cg2d_init_res =   1.98627929058536E+01
(PID.TID 0000.0001)      cg2d_iters(min,last) =      -1     213
(PID.TID 0000.0001)      cg2d_last_res =   8.51519638357812E-14
(PID.TID 0000.0001) // =======================================================
(PID.TID 0000.0001) // Begin MONITOR dynamic field statistics
(PID.TID 0000.0001) // =======================================================
(PID.TID 0000.0001) %MON time_tsnumber                =                     1
(PID.TID 0000.0001) %MON time_secondsf                =   1.8000000000000E+03
(PID.TID 0000.0001) %MON dynstat_eta_max              =   6.4489366259464E-14
(PID.TID 0000.0001) %MON dynstat_eta_min              =  -3.6172495628181E-14
(PID.TID 0000.0001) %MON dynstat_eta_mean             =  -1.3015005910811E-30
(PID.TID 0000.0001) %MON dynstat_eta_sd               =   1.3932096145382E-14
(PID.TID 0000.0001) %MON dynstat_eta_del2             =   4.4441285693597E-16
(PID.TID 0000.0001) %MON dynstat_uvel_max             =   1.8202127888508E-14
(PID.TID 0000.0001) %MON dynstat_uvel_min             =  -1.0974052134043E-14
(PID.TID 0000.0001) %MON dynstat_uvel_mean            =   8.0982295754563E-17
(PID.TID 0000.0001) %MON dynstat_uvel_sd              =   2.5578230812468E-15
(PID.TID 0000.0001) %MON dynstat_uvel_del2            =   1.7874272229403E-17
(PID.TID 0000.0001) %MON dynstat_vvel_max             =   1.2102977817343E-14
(PID.TID 0000.0001) %MON dynstat_vvel_min             =  -1.5644893150655E-14
(PID.TID 0000.0001) %MON dynstat_vvel_mean            =  -8.6595007985511E-16
(PID.TID 0000.0001) %MON dynstat_vvel_sd              =   1.3541078193367E-15
(PID.TID 0000.0001) %MON dynstat_vvel_del2            =   2.7283604765974E-18
(PID.TID 0000.0001) %MON dynstat_wvel_max             =   4.3644681172139E-17
(PID.TID 0000.0001) %MON dynstat_wvel_min             =  -2.6054641419741E-17
(PID.TID 0000.0001) %MON dynstat_wvel_mean            =  -7.5552037884627E-19
(PID.TID 0000.0001) %MON dynstat_wvel_sd              =   3.9876744935767E-18
(PID.TID 0000.0001) %MON dynstat_wvel_del2            =   2.6636016016166E-20
(PID.TID 0000.0001) %MON dynstat_theta_max            =  -1.9000000000000E+00
(PID.TID 0000.0001) %MON dynstat_theta_min            =  -1.9031075134161E+00
(PID.TID 0000.0001) %MON dynstat_theta_mean           =  -1.9000572867310E+00
(PID.TID 0000.0001) %MON dynstat_theta_sd             =   2.6040155102475E-04
(PID.TID 0000.0001) %MON dynstat_theta_del2           =   2.7320255817481E-07
(PID.TID 0000.0001) %MON dynstat_salt_max             =   3.4400000000000E+01
(PID.TID 0000.0001) %MON dynstat_salt_min             =   3.4398765074168E+01
(PID.TID 0000.0001) %MON dynstat_salt_mean            =   3.4399977234254E+01
(PID.TID 0000.0001) %MON dynstat_salt_sd              =   1.0348357637731E-04
(PID.TID 0000.0001) %MON dynstat_salt_del2            =   1.0857069661835E-07
(PID.TID 0000.0001) %MON trAdv_CFL_u_max              =   0.0000000000000E+00
(PID.TID 0000.0001) %MON trAdv_CFL_v_max              =   0.0000000000000E+00
(PID.TID 0000.0001) %MON trAdv_CFL_w_max              =   0.0000000000000E+00
(PID.TID 0000.0001) %MON advcfl_uvel_max              =   5.3153683900459E-15
(PID.TID 0000.0001) %MON advcfl_vvel_max              =   2.5329598543770E-15
(PID.TID 0000.0001) %MON advcfl_wvel_max              =   2.6186808703283E-15
(PID.TID 0000.0001) %MON advcfl_W_hf_max              =   1.9543340299404E-14
(PID.TID 0000.0001) %MON pe_b_mean                    =  -5.0056638937829E-18
(PID.TID 0000.0001) %MON ke_max                       =   1.6879902920162E-28
(PID.TID 0000.0001) %MON ke_mean                      =   4.4842333696478E-30
(PID.TID 0000.0001) %MON ke_vol                       =   2.9241705273105E+14
(PID.TID 0000.0001) %MON vort_r_min                   =  -2.1928629128559E-18
(PID.TID 0000.0001) %MON vort_r_max                   =   2.5499497430862E-18
(PID.TID 0000.0001) %MON vort_a_mean                  =  -1.4007437277914E-04
(PID.TID 0000.0001) %MON vort_a_sd                    =   1.7682771475769E-06
(PID.TID 0000.0001) %MON vort_p_mean                  =  -1.5039772194954E-04
(PID.TID 0000.0001) %MON vort_p_sd                    =   8.7081213929731E-05
(PID.TID 0000.0001) %MON surfExpan_theta_mean         =  -2.2287590954694E-21
(PID.TID 0000.0001) %MON surfExpan_salt_mean          =  -8.8570886454347E-22
(PID.TID 0000.0001) // =======================================================
(PID.TID 0000.0001) // End MONITOR dynamic field statistics
(PID.TID 0000.0001) // =======================================================
 cg2d: Sum(rhs),rhsMax =   4.40793465615507E-15  2.06500589412689E-06
(PID.TID 0000.0001)      cg2d_init_res =   1.63403489461103E+01
(PID.TID 0000.0001)      cg2d_iters(min,last) =      -1     220
(PID.TID 0000.0001)      cg2d_last_res =   9.44044805887186E-14
(PID.TID 0000.0001) // =======================================================
(PID.TID 0000.0001) // Begin MONITOR dynamic field statistics
(PID.TID 0000.0001) // =======================================================
(PID.TID 0000.0001) %MON time_tsnumber                =                     2
(PID.TID 0000.0001) %MON time_secondsf                =   3.6000000000000E+03
(PID.TID 0000.0001) %MON dynstat_eta_max              =   2.6620115445949E-06
(PID.TID 0000.0001) %MON dynstat_eta_min              =  -5.8329529589790E-06
(PID.TID 0000.0001) %MON dynstat_eta_mean             =  -8.3183072535980E-23
(PID.TID 0000.0001) %MON dynstat_eta_sd               =   1.1026632103928E-06
(PID.TID 0000.0001) %MON dynstat_eta_del2             =   2.9807223198019E-09
(PID.TID 0000.0001) %MON dynstat_uvel_max             =   7.9348095025057E-07
(PID.TID 0000.0001) %MON dynstat_uvel_min             =  -6.2691226755610E-06
(PID.TID 0000.0001) %MON dynstat_uvel_mean            =   1.5175634011846E-09
(PID.TID 0000.0001) %MON dynstat_uvel_sd              =   4.2882090089699E-07
(PID.TID 0000.0001) %MON dynstat_uvel_del2            =   9.9849624842503E-10
(PID.TID 0000.0001) %MON dynstat_vvel_max             =   2.4693317646327E-05
(PID.TID 0000.0001) %MON dynstat_vvel_min             =  -3.0902253636831E-06
(PID.TID 0000.0001) %MON dynstat_vvel_mean            =  -7.0364568353359E-08
(PID.TID 0000.0001) %MON dynstat_vvel_sd              =   1.5524590191246E-06
(PID.TID 0000.0001) %MON dynstat_vvel_del2            =   3.1166469560995E-09
(PID.TID 0000.0001) %MON dynstat_wvel_max             =   5.5888059888147E-08
(PID.TID 0000.0001) %MON dynstat_wvel_min             =  -5.1450449685779E-08
(PID.TID 0000.0001) %MON dynstat_wvel_mean            =  -4.2032856297735E-11
(PID.TID 0000.0001) %MON dynstat_wvel_sd              =   4.1096512014804E-09
(PID.TID 0000.0001) %MON dynstat_wvel_del2            =   4.4889210865123E-11
(PID.TID 0000.0001) %MON dynstat_theta_max            =  -1.9000000000000E+00
(PID.TID 0000.0001) %MON dynstat_theta_min            =  -1.9061900330598E+00
(PID.TID 0000.0001) %MON dynstat_theta_mean           =  -1.9001141191868E+00
(PID.TID 0000.0001) %MON dynstat_theta_sd             =   5.1857277249642E-04
(PID.TID 0000.0001) %MON dynstat_theta_del2           =   5.4233828267851E-07
(PID.TID 0000.0001) %MON dynstat_salt_max             =   3.4400000000000E+01
(PID.TID 0000.0001) %MON dynstat_salt_min             =   3.4397540080862E+01
(PID.TID 0000.0001) %MON dynstat_salt_mean            =   3.4399954649036E+01
(PID.TID 0000.0001) %MON dynstat_salt_sd              =   2.0608081979005E-04
(PID.TID 0000.0001) %MON dynstat_salt_del2            =   2.1552523353636E-07
(PID.TID 0000.0001) %MON trAdv_CFL_u_max              =   5.3153690646929E-15
(PID.TID 0000.0001) %MON trAdv_CFL_v_max              =   2.5212046536955E-15
(PID.TID 0000.0001) %MON trAdv_CFL_w_max              =   1.9543340299404E-14
(PID.TID 0000.0001) %MON advcfl_uvel_max              =   1.8653401407500E-06
(PID.TID 0000.0001) %MON advcfl_vvel_max              =   3.9979296545664E-06
(PID.TID 0000.0001) %MON advcfl_wvel_max              =   3.3532835932888E-06
(PID.TID 0000.0001) %MON advcfl_W_hf_max              =   5.1778422406568E-06
(PID.TID 0000.0001) %MON pe_b_mean                    =  -7.6548210948686E-10
(PID.TID 0000.0001) %MON ke_max                       =   1.8260606467257E-10
(PID.TID 0000.0001) %MON ke_mean                      =   1.2834108554500E-12
(PID.TID 0000.0001) %MON ke_vol                       =   2.9241705273105E+14
(PID.TID 0000.0001) %MON vort_r_min                   =  -4.1446869215064E-09
(PID.TID 0000.0001) %MON vort_r_max                   =   4.1009094982374E-09
(PID.TID 0000.0001) %MON vort_a_mean                  =  -1.4007437277909E-04
(PID.TID 0000.0001) %MON vort_a_sd                    =   1.7682771052083E-06
(PID.TID 0000.0001) %MON vort_p_mean                  =  -1.5039772194948E-04
(PID.TID 0000.0001) %MON vort_p_sd                    =   8.7081152045362E-05
(PID.TID 0000.0001) %MON surfExpan_theta_mean         =  -2.4420545930341E-13
(PID.TID 0000.0001) %MON surfExpan_salt_mean          =  -9.7047249527707E-14
(PID.TID 0000.0001) // =======================================================
(PID.TID 0000.0001) // End MONITOR dynamic field statistics
(PID.TID 0000.0001) // =======================================================
 cg2d: Sum(rhs),rhsMax =   3.54161144855425E-14  3.46423074795586E-06
(PID.TID 0000.0001)      cg2d_init_res =   5.16357660880445E+00
(PID.TID 0000.0001)      cg2d_iters(min,last) =      -1     218
(PID.TID 0000.0001)      cg2d_last_res =   9.42943414436841E-14
(PID.TID 0000.0001) // =======================================================
(PID.TID 0000.0001) // Begin MONITOR dynamic field statistics
(PID.TID 0000.0001) // =======================================================
(PID.TID 0000.0001) %MON time_tsnumber                =                     3
(PID.TID 0000.0001) %MON time_secondsf                =   5.4000000000000E+03
(PID.TID 0000.0001) %MON dynstat_eta_max              =   6.8177134026078E-06
(PID.TID 0000.0001) %MON dynstat_eta_min              =  -1.1395001154587E-05
(PID.TID 0000.0001) %MON dynstat_eta_mean             =   6.7378288754143E-22
(PID.TID 0000.0001) %MON dynstat_eta_sd               =   2.6122397407307E-06
(PID.TID 0000.0001) %MON dynstat_eta_del2             =   4.3013117133822E-09
(PID.TID 0000.0001) %MON dynstat_uvel_max             =   2.9331928285207E-06
(PID.TID 0000.0001) %MON dynstat_uvel_min             =  -2.1311666057786E-05
(PID.TID 0000.0001) %MON dynstat_uvel_mean            =   5.8178466132272E-09
(PID.TID 0000.0001) %MON dynstat_uvel_sd              =   1.4905737060168E-06
(PID.TID 0000.0001) %MON dynstat_uvel_del2            =   3.3857797650165E-09
(PID.TID 0000.0001) %MON dynstat_vvel_max             =   6.0759130114463E-05
(PID.TID 0000.0001) %MON dynstat_vvel_min             =  -8.0793001309698E-06
(PID.TID 0000.0001) %MON dynstat_vvel_mean            =  -1.6961294181956E-07
(PID.TID 0000.0001) %MON dynstat_vvel_sd              =   3.8784838947823E-06
(PID.TID 0000.0001) %MON dynstat_vvel_del2            =   7.7297467205516E-09
(PID.TID 0000.0001) %MON dynstat_wvel_max             =   1.5406303977705E-07
(PID.TID 0000.0001) %MON dynstat_wvel_min             =  -1.5278204633061E-07
(PID.TID 0000.0001) %MON dynstat_wvel_mean            =  -8.7807861557869E-11
(PID.TID 0000.0001) %MON dynstat_wvel_sd              =   1.0408747168159E-08
(PID.TID 0000.0001) %MON dynstat_wvel_del2            =   1.1132345707202E-10
(PID.TID 0000.0001) %MON dynstat_theta_max            =  -1.9000000000000E+00
(PID.TID 0000.0001) %MON dynstat_theta_min            =  -1.9092571454321E+00
(PID.TID 0000.0001) %MON dynstat_theta_mean           =  -1.9001706714958E+00
(PID.TID 0000.0001) %MON dynstat_theta_sd             =   7.7536965797278E-04
(PID.TID 0000.0001) %MON dynstat_theta_del2           =   8.0899670852990E-07
(PID.TID 0000.0001) %MON dynstat_salt_max             =   3.4400000000000E+01
(PID.TID 0000.0001) %MON dynstat_salt_min             =   3.4396321210405E+01
(PID.TID 0000.0001) %MON dynstat_salt_mean            =   3.4399932175148E+01
(PID.TID 0000.0001) %MON dynstat_salt_sd              =   3.0813190207837E-04
(PID.TID 0000.0001) %MON dynstat_salt_del2            =   3.2149529196967E-07
(PID.TID 0000.0001) %MON trAdv_CFL_u_max              =   1.8653403775064E-06
(PID.TID 0000.0001) %MON trAdv_CFL_v_max              =   4.0170317738667E-06
(PID.TID 0000.0001) %MON trAdv_CFL_w_max              =   3.3532835932888E-06
(PID.TID 0000.0001) %MON advcfl_uvel_max              =   6.3411593968036E-06
(PID.TID 0000.0001) %MON advcfl_vvel_max              =   9.8371037682903E-06
(PID.TID 0000.0001) %MON advcfl_wvel_max              =   9.2437823866230E-06
(PID.TID 0000.0001) %MON advcfl_W_hf_max              =   1.2634591844368E-05
(PID.TID 0000.0001) %MON pe_b_mean                    =  -2.0341518148546E-09
(PID.TID 0000.0001) %MON ke_max                       =   1.2265357794871E-09
(PID.TID 0000.0001) %MON ke_mean                      =   8.5353520720944E-12
(PID.TID 0000.0001) %MON ke_vol                       =   2.9241705273105E+14
(PID.TID 0000.0001) %MON vort_r_min                   =  -1.0254059639800E-08
(PID.TID 0000.0001) %MON vort_r_max                   =   1.0084709463868E-08
(PID.TID 0000.0001) %MON vort_a_mean                  =  -1.4007437277834E-04
(PID.TID 0000.0001) %MON vort_a_sd                    =   1.7682770050481E-06
(PID.TID 0000.0001) %MON vort_p_mean                  =  -1.5039772194868E-04
(PID.TID 0000.0001) %MON vort_p_sd                    =   8.7080997315452E-05
(PID.TID 0000.0001) %MON surfExpan_theta_mean         =  -7.6744588498453E-13
(PID.TID 0000.0001) %MON surfExpan_salt_mean          =  -3.0498299469375E-13
(PID.TID 0000.0001) // =======================================================
(PID.TID 0000.0001) // End MONITOR dynamic field statistics
(PID.TID 0000.0001) // =======================================================
 cg2d: Sum(rhs),rhsMax =  -3.01980662698043E-14  4.82194438104501E-06
(PID.TID 0000.0001)      cg2d_init_res =   3.42412229978321E+00
(PID.TID 0000.0001)      cg2d_iters(min,last) =      -1     218
(PID.TID 0000.0001)      cg2d_last_res =   9.92153813552516E-14
(PID.TID 0000.0001) // =======================================================
(PID.TID 0000.0001) // Begin MONITOR dynamic field statistics
(PID.TID 0000.0001) // =======================================================
(PID.TID 0000.0001) %MON time_tsnumber                =                     4
(PID.TID 0000.0001) %MON time_secondsf                =   7.2000000000000E+03
(PID.TID 0000.0001) %MON dynstat_eta_max              =   1.1616378405672E-05
(PID.TID 0000.0001) %MON dynstat_eta_min              =  -1.5498103869461E-05
(PID.TID 0000.0001) %MON dynstat_eta_mean             =  -1.6636614507196E-22
(PID.TID 0000.0001) %MON dynstat_eta_sd               =   4.2573928569895E-06
(PID.TID 0000.0001) %MON dynstat_eta_del2             =   5.4855294156242E-09
(PID.TID 0000.0001) %MON dynstat_uvel_max             =   6.6886126159826E-06
(PID.TID 0000.0001) %MON dynstat_uvel_min             =  -4.7196743271614E-05
(PID.TID 0000.0001) %MON dynstat_uvel_mean            =   1.0507772052859E-08
(PID.TID 0000.0001) %MON dynstat_uvel_sd              =   3.3460705549558E-06
(PID.TID 0000.0001) %MON dynstat_uvel_del2            =   7.4845147356648E-09
(PID.TID 0000.0001) %MON dynstat_vvel_max             =   1.0547154844286E-04
(PID.TID 0000.0001) %MON dynstat_vvel_min             =  -1.4495160020540E-05
(PID.TID 0000.0001) %MON dynstat_vvel_mean            =  -2.7634825188709E-07
(PID.TID 0000.0001) %MON dynstat_vvel_sd              =   6.7930967430826E-06
(PID.TID 0000.0001) %MON dynstat_vvel_del2            =   1.3464468699550E-08
(PID.TID 0000.0001) %MON dynstat_wvel_max             =   3.0152163526015E-07
(PID.TID 0000.0001) %MON dynstat_wvel_min             =  -3.0870268431107E-07
(PID.TID 0000.0001) %MON dynstat_wvel_mean            =  -1.2855248469376E-10
(PID.TID 0000.0001) %MON dynstat_wvel_sd              =   1.8633545130855E-08
(PID.TID 0000.0001) %MON dynstat_wvel_del2            =   1.9392264456498E-10
(PID.TID 0000.0001) %MON dynstat_theta_max            =  -1.9000000000000E+00
(PID.TID 0000.0001) %MON dynstat_theta_min            =  -1.9123088990739E+00
(PID.TID 0000.0001) %MON dynstat_theta_mean           =  -1.9002269445693E+00
(PID.TID 0000.0001) %MON dynstat_theta_sd             =   1.0307969858515E-03
(PID.TID 0000.0001) %MON dynstat_theta_del2           =   1.0731967408193E-06
(PID.TID 0000.0001) %MON dynstat_salt_max             =   3.4400000000000E+01
(PID.TID 0000.0001) %MON dynstat_salt_min             =   3.4395108443508E+01
(PID.TID 0000.0001) %MON dynstat_salt_mean            =   3.4399909812229E+01
(PID.TID 0000.0001) %MON dynstat_salt_sd              =   4.0963872217738E-04
(PID.TID 0000.0001) %MON dynstat_salt_del2            =   4.2648838480154E-07
(PID.TID 0000.0001) %MON trAdv_CFL_u_max              =   6.3411602016487E-06
(PID.TID 0000.0001) %MON trAdv_CFL_v_max              =   9.8841054781721E-06
(PID.TID 0000.0001) %MON trAdv_CFL_w_max              =   9.2437823866230E-06
(PID.TID 0000.0001) %MON advcfl_uvel_max              =   1.4043110063935E-05
(PID.TID 0000.0001) %MON advcfl_vvel_max              =   1.7076191918483E-05
(PID.TID 0000.0001) %MON advcfl_wvel_max              =   1.8522161058664E-05
(PID.TID 0000.0001) %MON advcfl_W_hf_max              =   2.5126450156770E-05
(PID.TID 0000.0001) %MON pe_b_mean                    =  -3.6253606127234E-09
(PID.TID 0000.0001) %MON ke_max                       =   4.1522861615811E-09
(PID.TID 0000.0001) %MON ke_mean                      =   2.8323437159165E-11
(PID.TID 0000.0001) %MON ke_vol                       =   2.9241705273105E+14
(PID.TID 0000.0001) %MON vort_r_min                   =  -1.7852049535734E-08
(PID.TID 0000.0001) %MON vort_r_max                   =   1.7542412821887E-08
(PID.TID 0000.0001) %MON vort_a_mean                  =  -1.4007437277493E-04
(PID.TID 0000.0001) %MON vort_a_sd                    =   1.7682768407625E-06
(PID.TID 0000.0001) %MON vort_p_mean                  =  -1.5039772194501E-04
(PID.TID 0000.0001) %MON vort_p_sd                    =   8.7080726844616E-05
(PID.TID 0000.0001) %MON surfExpan_theta_mean         =  -1.4981769674117E-12
(PID.TID 0000.0001) %MON surfExpan_salt_mean          =  -5.9537552685248E-13
(PID.TID 0000.0001) // =======================================================
(PID.TID 0000.0001) // End MONITOR dynamic field statistics
(PID.TID 0000.0001) // =======================================================
 cg2d: Sum(rhs),rhsMax =   4.61852778244065E-14  5.98863678292104E-06
(PID.TID 0000.0001)      cg2d_init_res =   2.57741805471656E+00
(PID.TID 0000.0001)      cg2d_iters(min,last) =      -1     219
(PID.TID 0000.0001)      cg2d_last_res =   8.64567166200752E-14
(PID.TID 0000.0001) // =======================================================
(PID.TID 0000.0001) // Begin MONITOR dynamic field statistics
(PID.TID 0000.0001) // =======================================================
(PID.TID 0000.0001) %MON time_tsnumber                =                     5
(PID.TID 0000.0001) %MON time_secondsf                =   9.0000000000000E+03
(PID.TID 0000.0001) %MON dynstat_eta_max              =   1.6784899781530E-05
(PID.TID 0000.0001) %MON dynstat_eta_min              =  -1.8463146056293E-05
(PID.TID 0000.0001) %MON dynstat_eta_mean             =   2.6618583211513E-22
(PID.TID 0000.0001) %MON dynstat_eta_sd               =   6.0083919163642E-06
(PID.TID 0000.0001) %MON dynstat_eta_del2             =   6.4859239245952E-09
(PID.TID 0000.0001) %MON dynstat_uvel_max             =   1.2227098318843E-05
(PID.TID 0000.0001) %MON dynstat_uvel_min             =  -8.5220770841271E-05
(PID.TID 0000.0001) %MON dynstat_uvel_mean            =   1.2851993725778E-08
(PID.TID 0000.0001) %MON dynstat_uvel_sd              =   6.0936101391956E-06
(PID.TID 0000.0001) %MON dynstat_uvel_del2            =   1.3468202070222E-08
(PID.TID 0000.0001) %MON dynstat_vvel_max             =   1.5571793512370E-04
(PID.TID 0000.0001) %MON dynstat_vvel_min             =  -2.1838192273415E-05
(PID.TID 0000.0001) %MON dynstat_vvel_mean            =  -3.6956076485869E-07
(PID.TID 0000.0001) %MON dynstat_vvel_sd              =   1.0075310868643E-05
(PID.TID 0000.0001) %MON dynstat_vvel_del2            =   1.9883415080710E-08
(PID.TID 0000.0001) %MON dynstat_wvel_max             =   5.1615498164119E-07
(PID.TID 0000.0001) %MON dynstat_wvel_min             =  -5.2044518855102E-07
(PID.TID 0000.0001) %MON dynstat_wvel_mean            =  -1.5761452575069E-10
(PID.TID 0000.0001) %MON dynstat_wvel_sd              =   2.8464978397708E-08
(PID.TID 0000.0001) %MON dynstat_wvel_del2            =   2.8674113822400E-10
(PID.TID 0000.0001) %MON dynstat_theta_max            =  -1.9000000000000E+00
(PID.TID 0000.0001) %MON dynstat_theta_min            =  -1.9153453754111E+00
(PID.TID 0000.0001) %MON dynstat_theta_mean           =  -1.9002829398543E+00
(PID.TID 0000.0001) %MON dynstat_theta_sd             =   1.2848622976638E-03
(PID.TID 0000.0001) %MON dynstat_theta_del2           =   1.3349651023354E-06
(PID.TID 0000.0001) %MON dynstat_salt_max             =   3.4400000000000E+01
(PID.TID 0000.0001) %MON dynstat_salt_min             =   3.4393901747812E+01
(PID.TID 0000.0001) %MON dynstat_salt_mean            =   3.4399887559703E+01
(PID.TID 0000.0001) %MON dynstat_salt_sd              =   5.1060427709162E-04
(PID.TID 0000.0001) %MON dynstat_salt_del2            =   5.3051513166803E-07
(PID.TID 0000.0001) %MON trAdv_CFL_u_max              =   1.4043111846343E-05
(PID.TID 0000.0001) %MON trAdv_CFL_v_max              =   1.7157782012208E-05
(PID.TID 0000.0001) %MON trAdv_CFL_w_max              =   1.8522161058664E-05
(PID.TID 0000.0001) %MON advcfl_uvel_max              =   2.5356933163165E-05
(PID.TID 0000.0001) %MON advcfl_vvel_max              =   2.5211247815925E-05
(PID.TID 0000.0001) %MON advcfl_wvel_max              =   3.1226711313061E-05
(PID.TID 0000.0001) %MON advcfl_W_hf_max              =   4.1618908772005E-05
(PID.TID 0000.0001) %MON pe_b_mean                    =  -5.4328513057104E-09
(PID.TID 0000.0001) %MON ke_max                       =   1.0277932977903E-08
(PID.TID 0000.0001) %MON ke_mean                      =   6.8413892809697E-11
(PID.TID 0000.0001) %MON ke_vol                       =   2.9241705273105E+14
(PID.TID 0000.0001) %MON vort_r_min                   =  -2.6364497469924E-08
(PID.TID 0000.0001) %MON vort_r_max                   =   2.5877764847854E-08
(PID.TID 0000.0001) %MON vort_a_mean                  =  -1.4007437276590E-04
(PID.TID 0000.0001) %MON vort_a_sd                    =   1.7682766216622E-06
(PID.TID 0000.0001) %MON vort_p_mean                  =  -1.5039772193532E-04
(PID.TID 0000.0001) %MON vort_p_sd                    =   8.7080326311260E-05
(PID.TID 0000.0001) %MON surfExpan_theta_mean         =  -2.2922536857782E-12
(PID.TID 0000.0001) %MON surfExpan_salt_mean          =  -9.1094161472773E-13
(PID.TID 0000.0001) // =======================================================
(PID.TID 0000.0001) // End MONITOR dynamic field statistics
(PID.TID 0000.0001) // =======================================================
 cg2d: Sum(rhs),rhsMax =   1.50990331349021E-14  7.39994711382181E-06
(PID.TID 0000.0001)      cg2d_init_res =   2.02658946368445E+00
(PID.TID 0000.0001)      cg2d_iters(min,last) =      -1     217
(PID.TID 0000.0001)      cg2d_last_res =   9.83396711238234E-14
(PID.TID 0000.0001) // =======================================================
(PID.TID 0000.0001) // Begin MONITOR dynamic field statistics
(PID.TID 0000.0001) // =======================================================
(PID.TID 0000.0001) %MON time_tsnumber                =                     6
(PID.TID 0000.0001) %MON time_secondsf                =   1.0800000000000E+04
(PID.TID 0000.0001) %MON dynstat_eta_max              =   2.2297663883606E-05
(PID.TID 0000.0001) %MON dynstat_eta_min              =  -2.1121167125308E-05
(PID.TID 0000.0001) %MON dynstat_eta_mean             =  -1.5971149926908E-21
(PID.TID 0000.0001) %MON dynstat_eta_sd               =   7.8740846694983E-06
(PID.TID 0000.0001) %MON dynstat_eta_del2             =   7.3102353918756E-09
(PID.TID 0000.0001) %MON dynstat_uvel_max             =   1.9696193575535E-05
(PID.TID 0000.0001) %MON dynstat_uvel_min             =  -1.3576377978050E-04
(PID.TID 0000.0001) %MON dynstat_uvel_mean            =   1.1272982926670E-08
(PID.TID 0000.0001) %MON dynstat_uvel_sd              =   9.7661946412791E-06
(PID.TID 0000.0001) %MON dynstat_uvel_del2            =   2.1372925224500E-08
(PID.TID 0000.0001) %MON dynstat_vvel_max             =   2.0787450180521E-04
(PID.TID 0000.0001) %MON dynstat_vvel_min             =  -2.9601541010291E-05
(PID.TID 0000.0001) %MON dynstat_vvel_mean            =  -4.3265692396513E-07
(PID.TID 0000.0001) %MON dynstat_vvel_sd              =   1.3490387711397E-05
(PID.TID 0000.0001) %MON dynstat_vvel_del2            =   2.6536194611791E-08
(PID.TID 0000.0001) %MON dynstat_wvel_max             =   7.8750212545234E-07
(PID.TID 0000.0001) %MON dynstat_wvel_min             =  -7.8547066405623E-07
(PID.TID 0000.0001) %MON dynstat_wvel_mean            =  -1.7126742694035E-10
(PID.TID 0000.0001) %MON dynstat_wvel_sd              =   3.9559308752838E-08
(PID.TID 0000.0001) %MON dynstat_wvel_del2            =   3.8366267859477E-10
(PID.TID 0000.0001) %MON dynstat_theta_max            =  -1.9000000000000E+00
(PID.TID 0000.0001) %MON dynstat_theta_min            =  -1.9183666581869E+00
(PID.TID 0000.0001) %MON dynstat_theta_mean           =  -1.9003386587889E+00
(PID.TID 0000.0001) %MON dynstat_theta_sd             =   1.5375730871960E-03
(PID.TID 0000.0001) %MON dynstat_theta_del2           =   1.5943281859534E-06
(PID.TID 0000.0001) %MON dynstat_salt_max             =   3.4400000000000E+01
(PID.TID 0000.0001) %MON dynstat_salt_min             =   3.4392701090037E+01
(PID.TID 0000.0001) %MON dynstat_salt_mean            =   3.4399865416998E+01
(PID.TID 0000.0001) %MON dynstat_salt_sd              =   6.1103154485171E-04
(PID.TID 0000.0001) %MON dynstat_salt_del2            =   6.3358602109778E-07
(PID.TID 0000.0001) %MON trAdv_CFL_u_max              =   2.5356936381568E-05
(PID.TID 0000.0001) %MON trAdv_CFL_v_max              =   2.5334132865222E-05
(PID.TID 0000.0001) %MON trAdv_CFL_w_max              =   3.1226711313061E-05
(PID.TID 0000.0001) %MON advcfl_uvel_max              =   4.0395704660837E-05
(PID.TID 0000.0001) %MON advcfl_vvel_max              =   3.3655568162138E-05
(PID.TID 0000.0001) %MON advcfl_wvel_max              =   4.7250127527140E-05
(PID.TID 0000.0001) %MON advcfl_W_hf_max              =   6.1734971992061E-05
(PID.TID 0000.0001) %MON pe_b_mean                    =  -7.3660473661403E-09
(PID.TID 0000.0001) %MON ke_max                       =   2.1081563214161E-08
(PID.TID 0000.0001) %MON ke_mean                      =   1.3673399520206E-10
(PID.TID 0000.0001) %MON ke_vol                       =   2.9241705273105E+14
(PID.TID 0000.0001) %MON vort_r_min                   =  -3.5195090228698E-08
(PID.TID 0000.0001) %MON vort_r_max                   =   3.4495420472433E-08
(PID.TID 0000.0001) %MON vort_a_mean                  =  -1.4007437274921E-04
(PID.TID 0000.0001) %MON vort_a_sd                    =   1.7682763653502E-06
(PID.TID 0000.0001) %MON vort_p_mean                  =  -1.5039772191740E-04
(PID.TID 0000.0001) %MON vort_p_sd                    =   8.7079790864782E-05
(PID.TID 0000.0001) %MON surfExpan_theta_mean         =  -2.9804230676149E-12
(PID.TID 0000.0001) %MON surfExpan_salt_mean          =  -1.1844201270582E-12
(PID.TID 0000.0001) // =======================================================
(PID.TID 0000.0001) // End MONITOR dynamic field statistics
(PID.TID 0000.0001) // =======================================================
 cg2d: Sum(rhs),rhsMax =   1.77635683940025E-14  8.84378663270105E-06
(PID.TID 0000.0001)      cg2d_init_res =   1.71088351334190E+00
(PID.TID 0000.0001)      cg2d_iters(min,last) =      -1     216
(PID.TID 0000.0001)      cg2d_last_res =   9.85918748873538E-14
(PID.TID 0000.0001) // =======================================================
(PID.TID 0000.0001) // Begin MONITOR dynamic field statistics
(PID.TID 0000.0001) // =======================================================
(PID.TID 0000.0001) %MON time_tsnumber                =                     7
(PID.TID 0000.0001) %MON time_secondsf                =   1.2600000000000E+04
(PID.TID 0000.0001) %MON dynstat_eta_max              =   2.8103762057945E-05
(PID.TID 0000.0001) %MON dynstat_eta_min              =  -2.4159621854222E-05
(PID.TID 0000.0001) %MON dynstat_eta_mean             =   1.5971149926908E-21
(PID.TID 0000.0001) %MON dynstat_eta_sd               =   9.8077584845598E-06
(PID.TID 0000.0001) %MON dynstat_eta_del2             =   7.9722294840032E-09
(PID.TID 0000.0001) %MON dynstat_uvel_max             =   2.9126373557545E-05
(PID.TID 0000.0001) %MON dynstat_uvel_min             =  -1.9830448619235E-04
(PID.TID 0000.0001) %MON dynstat_uvel_mean            =   6.0612737629029E-09
(PID.TID 0000.0001) %MON dynstat_uvel_sd              =   1.4333036834413E-05
(PID.TID 0000.0001) %MON dynstat_uvel_del2            =   3.1104406423818E-08
(PID.TID 0000.0001) %MON dynstat_vvel_max             =   2.5849156278198E-04
(PID.TID 0000.0001) %MON dynstat_vvel_min             =  -3.7305154046425E-05
(PID.TID 0000.0001) %MON dynstat_vvel_mean            =  -4.5592986648052E-07
(PID.TID 0000.0001) %MON dynstat_vvel_sd              =   1.6806340250000E-05
(PID.TID 0000.0001) %MON dynstat_vvel_del2            =   3.2989954932111E-08
(PID.TID 0000.0001) %MON dynstat_wvel_max             =   1.1100607458304E-06
(PID.TID 0000.0001) %MON dynstat_wvel_min             =  -1.0978721002192E-06
(PID.TID 0000.0001) %MON dynstat_wvel_mean            =  -1.6874570435183E-10
(PID.TID 0000.0001) %MON dynstat_wvel_sd              =   5.1571690262421E-08
(PID.TID 0000.0001) %MON dynstat_wvel_del2            =   4.7889693870500E-10
(PID.TID 0000.0001) %MON dynstat_theta_max            =  -1.9000000000000E+00
(PID.TID 0000.0001) %MON dynstat_theta_min            =  -1.9213728341427E+00
(PID.TID 0000.0001) %MON dynstat_theta_mean           =  -1.9003941028043E+00
(PID.TID 0000.0001) %MON dynstat_theta_sd             =   1.7889368090001E-03
(PID.TID 0000.0001) %MON dynstat_theta_del2           =   1.8513119723882E-06
(PID.TID 0000.0001) %MON dynstat_salt_max             =   3.4400000000000E+01
(PID.TID 0000.0001) %MON dynstat_salt_min             =   3.4391506435712E+01
(PID.TID 0000.0001) %MON dynstat_salt_mean            =   3.4399843383546E+01
(PID.TID 0000.0001) %MON dynstat_salt_sd              =   7.1092348789666E-04
(PID.TID 0000.0001) %MON dynstat_salt_del2            =   7.3571137782699E-07
(PID.TID 0000.0001) %MON trAdv_CFL_u_max              =   4.0395709788020E-05
(PID.TID 0000.0001) %MON trAdv_CFL_v_max              =   3.3819612646684E-05
(PID.TID 0000.0001) %MON trAdv_CFL_w_max              =   4.7250127527140E-05
(PID.TID 0000.0001) %MON advcfl_uvel_max              =   5.9004319635888E-05
(PID.TID 0000.0001) %MON advcfl_vvel_max              =   4.1850637451911E-05
(PID.TID 0000.0001) %MON advcfl_wvel_max              =   6.6603644749826E-05
(PID.TID 0000.0001) %MON advcfl_W_hf_max              =   8.4911129063261E-05
(PID.TID 0000.0001) %MON pe_b_mean                    =  -9.3193491809174E-09
(PID.TID 0000.0001) %MON ke_max                       =   3.8011797439848E-08
(PID.TID 0000.0001) %MON ke_mean                      =   2.4029049718039E-10
(PID.TID 0000.0001) %MON ke_vol                       =   2.9241705273105E+14
(PID.TID 0000.0001) %MON vort_r_min                   =  -4.3765030325817E-08
(PID.TID 0000.0001) %MON vort_r_max                   =   4.2822131619896E-08
(PID.TID 0000.0001) %MON vort_a_mean                  =  -1.4007437272550E-04
(PID.TID 0000.0001) %MON vort_a_sd                    =   1.7682760892638E-06
(PID.TID 0000.0001) %MON vort_p_mean                  =  -1.5039772189194E-04
(PID.TID 0000.0001) %MON vort_p_sd                    =   8.7079124998392E-05
(PID.TID 0000.0001) %MON surfExpan_theta_mean         =  -3.4131712507734E-12
(PID.TID 0000.0001) %MON surfExpan_salt_mean          =  -1.3563942550570E-12
(PID.TID 0000.0001) // =======================================================
(PID.TID 0000.0001) // End MONITOR dynamic field statistics
(PID.TID 0000.0001) // =======================================================
 cg2d: Sum(rhs),rhsMax =   3.90798504668055E-14  1.02741803931606E-05
(PID.TID 0000.0001)      cg2d_init_res =   1.52805976479553E+00
(PID.TID 0000.0001)      cg2d_iters(min,last) =      -1     216
(PID.TID 0000.0001)      cg2d_last_res =   8.05045017423581E-14
(PID.TID 0000.0001) // =======================================================
(PID.TID 0000.0001) // Begin MONITOR dynamic field statistics
(PID.TID 0000.0001) // =======================================================
(PID.TID 0000.0001) %MON time_tsnumber                =                     8
(PID.TID 0000.0001) %MON time_secondsf                =   1.4400000000000E+04
(PID.TID 0000.0001) %MON dynstat_eta_max              =   3.3949241152247E-05
(PID.TID 0000.0001) %MON dynstat_eta_min              =  -2.7897914570120E-05
(PID.TID 0000.0001) %MON dynstat_eta_mean             =  -9.3165041240297E-22
(PID.TID 0000.0001) %MON dynstat_eta_sd               =   1.1715198477022E-05
(PID.TID 0000.0001) %MON dynstat_eta_del2             =   8.4889520280581E-09
(PID.TID 0000.0001) %MON dynstat_uvel_max             =   4.0257249317886E-05
(PID.TID 0000.0001) %MON dynstat_uvel_min             =  -2.7152663352786E-04
(PID.TID 0000.0001) %MON dynstat_uvel_mean            =  -8.7157598414343E-10
(PID.TID 0000.0001) %MON dynstat_uvel_sd              =   1.9704942362738E-05
(PID.TID 0000.0001) %MON dynstat_uvel_del2            =   4.2453818077913E-08
(PID.TID 0000.0001) %MON dynstat_vvel_max             =   3.0447368191163E-04
(PID.TID 0000.0001) %MON dynstat_vvel_min             =  -4.4515904628342E-05
(PID.TID 0000.0001) %MON dynstat_vvel_mean            =  -4.3712957365047E-07
(PID.TID 0000.0001) %MON dynstat_vvel_sd              =   1.9809033632020E-05
(PID.TID 0000.0001) %MON dynstat_vvel_del2            =   3.8856071493890E-08
(PID.TID 0000.0001) %MON dynstat_wvel_max             =   1.4753771498214E-06
(PID.TID 0000.0001) %MON dynstat_wvel_min             =  -1.4490200203333E-06
(PID.TID 0000.0001) %MON dynstat_wvel_mean            =  -1.5156665402537E-10
(PID.TID 0000.0001) %MON dynstat_wvel_sd              =   6.4169437624100E-08
(PID.TID 0000.0001) %MON dynstat_wvel_del2            =   5.6734403732449E-10
(PID.TID 0000.0001) %MON dynstat_theta_max            =  -1.9000000000000E+00
(PID.TID 0000.0001) %MON dynstat_theta_min            =  -1.9243639932594E+00
(PID.TID 0000.0001) %MON dynstat_theta_mean           =  -1.9004492733245E+00
(PID.TID 0000.0001) %MON dynstat_theta_sd             =   2.0389608770449E-03
(PID.TID 0000.0001) %MON dynstat_theta_del2           =   2.1059419563185E-06
(PID.TID 0000.0001) %MON dynstat_salt_max             =   3.4400000000000E+01
(PID.TID 0000.0001) %MON dynstat_salt_min             =   3.4390317749079E+01
(PID.TID 0000.0001) %MON dynstat_salt_mean            =   3.4399821458782E+01
(PID.TID 0000.0001) %MON dynstat_salt_sd              =   8.1028305253768E-04
(PID.TID 0000.0001) %MON dynstat_salt_del2            =   8.3690133344087E-07
(PID.TID 0000.0001) %MON trAdv_CFL_u_max              =   5.9004327124951E-05
(PID.TID 0000.0001) %MON trAdv_CFL_v_max              =   4.2054626468398E-05
(PID.TID 0000.0001) %MON trAdv_CFL_w_max              =   6.6603644749826E-05
(PID.TID 0000.0001) %MON advcfl_uvel_max              =   8.0791133786022E-05
(PID.TID 0000.0001) %MON advcfl_vvel_max              =   4.9295294353880E-05
(PID.TID 0000.0001) %MON advcfl_wvel_max              =   8.8522628989286E-05
(PID.TID 0000.0001) %MON advcfl_W_hf_max              =   1.1042681381821E-04
(PID.TID 0000.0001) %MON pe_b_mean                    =  -1.1176197277511E-08
(PID.TID 0000.0001) %MON ke_max                       =   6.2273522395731E-08
(PID.TID 0000.0001) %MON ke_mean                      =   3.8416682758467E-10
(PID.TID 0000.0001) %MON ke_vol                       =   2.9241705273105E+14
(PID.TID 0000.0001) %MON vort_r_min                   =  -5.1550231577634E-08
(PID.TID 0000.0001) %MON vort_r_max                   =   5.0343694619246E-08
(PID.TID 0000.0001) %MON vort_a_mean                  =  -1.4007437269853E-04
(PID.TID 0000.0001) %MON vort_a_sd                    =   1.7682758043605E-06
(PID.TID 0000.0001) %MON vort_p_mean                  =  -1.5039772186298E-04
(PID.TID 0000.0001) %MON vort_p_sd                    =   8.7078341731435E-05
(PID.TID 0000.0001) %MON surfExpan_theta_mean         =  -3.4877396322563E-12
(PID.TID 0000.0001) %MON surfExpan_salt_mean          =  -1.3860277298542E-12
(PID.TID 0000.0001) // =======================================================
(PID.TID 0000.0001) // End MONITOR dynamic field statistics
(PID.TID 0000.0001) // =======================================================
 cg2d: Sum(rhs),rhsMax =   2.48689957516035E-14  1.16538178708747E-05
(PID.TID 0000.0001)      cg2d_init_res =   1.42219405720395E+00
(PID.TID 0000.0001)      cg2d_iters(min,last) =      -1     215
(PID.TID 0000.0001)      cg2d_last_res =   7.47751788818084E-14
(PID.TID 0000.0001) // =======================================================
(PID.TID 0000.0001) // Begin MONITOR dynamic field statistics
(PID.TID 0000.0001) // =======================================================
(PID.TID 0000.0001) %MON time_tsnumber                =                     9
(PID.TID 0000.0001) %MON time_secondsf                =   1.6200000000000E+04
(PID.TID 0000.0001) %MON dynstat_eta_max              =   3.9518349350860E-05
(PID.TID 0000.0001) %MON dynstat_eta_min              =  -3.2371782287039E-05
(PID.TID 0000.0001) %MON dynstat_eta_mean             =   1.4640220766332E-21
(PID.TID 0000.0001) %MON dynstat_eta_sd               =   1.3492210540009E-05
(PID.TID 0000.0001) %MON dynstat_eta_del2             =   8.8814717978858E-09
(PID.TID 0000.0001) %MON dynstat_uvel_max             =   5.2803410633464E-05
(PID.TID 0000.0001) %MON dynstat_uvel_min             =  -3.5347226687363E-04
(PID.TID 0000.0001) %MON dynstat_uvel_mean            =  -6.9330392371293E-09
(PID.TID 0000.0001) %MON dynstat_uvel_sd              =   2.5743103166786E-05
(PID.TID 0000.0001) %MON dynstat_uvel_del2            =   5.5120204318514E-08
(PID.TID 0000.0001) %MON dynstat_vvel_max             =   3.4323507631175E-04
(PID.TID 0000.0001) %MON dynstat_vvel_min             =  -5.0861606668195E-05
(PID.TID 0000.0001) %MON dynstat_vvel_mean            =  -3.8053167252940E-07
(PID.TID 0000.0001) %MON dynstat_vvel_sd              =   2.2315366194511E-05
(PID.TID 0000.0001) %MON dynstat_vvel_del2            =   4.3812201035755E-08
(PID.TID 0000.0001) %MON dynstat_wvel_max             =   1.8727117644912E-06
(PID.TID 0000.0001) %MON dynstat_wvel_min             =  -1.8283081834378E-06
(PID.TID 0000.0001) %MON dynstat_wvel_mean            =  -1.2269897294693E-10
(PID.TID 0000.0001) %MON dynstat_wvel_sd              =   7.7041600694300E-08
(PID.TID 0000.0001) %MON dynstat_wvel_del2            =   6.4489401518090E-10
(PID.TID 0000.0001) %MON dynstat_theta_max            =  -1.9000000000000E+00
(PID.TID 0000.0001) %MON dynstat_theta_min            =  -1.9273402286426E+00
(PID.TID 0000.0001) %MON dynstat_theta_mean           =  -1.9005041717660E+00
(PID.TID 0000.0001) %MON dynstat_theta_sd             =   2.2876526636210E-03
(PID.TID 0000.0001) %MON dynstat_theta_del2           =   2.3582431001156E-06
(PID.TID 0000.0001) %MON dynstat_salt_max             =   3.4400000000000E+01
(PID.TID 0000.0001) %MON dynstat_salt_min             =   3.4389134993137E+01
(PID.TID 0000.0001) %MON dynstat_salt_mean            =   3.4399799642141E+01
(PID.TID 0000.0001) %MON dynstat_salt_sd              =   9.0911316852304E-04
(PID.TID 0000.0001) %MON dynstat_salt_del2            =   9.3716580798585E-07
(PID.TID 0000.0001) %MON trAdv_CFL_u_max              =   8.0791144040354E-05
(PID.TID 0000.0001) %MON trAdv_CFL_v_max              =   4.9535570230783E-05
(PID.TID 0000.0001) %MON trAdv_CFL_w_max              =   8.8522628989286E-05
(PID.TID 0000.0001) %MON advcfl_uvel_max              =   1.0517356927974E-04
(PID.TID 0000.0001) %MON advcfl_vvel_max              =   5.5570892082143E-05
(PID.TID 0000.0001) %MON advcfl_wvel_max              =   1.1236270586947E-04
(PID.TID 0000.0001) %MON advcfl_W_hf_max              =   1.3745200038824E-04
(PID.TID 0000.0001) %MON pe_b_mean                    =  -1.2827705949923E-08
(PID.TID 0000.0001) %MON ke_max                       =   9.4625135942211E-08
(PID.TID 0000.0001) %MON ke_mean                      =   5.7072328598831E-10
(PID.TID 0000.0001) %MON ke_vol                       =   2.9241705273105E+14
(PID.TID 0000.0001) %MON vort_r_min                   =  -5.8112896846607E-08
(PID.TID 0000.0001) %MON vort_r_max                   =   5.6634642080937E-08
(PID.TID 0000.0001) %MON vort_a_mean                  =  -1.4007437267378E-04
(PID.TID 0000.0001) %MON vort_a_sd                    =   1.7682755171948E-06
(PID.TID 0000.0001) %MON vort_p_mean                  =  -1.5039772183641E-04
(PID.TID 0000.0001) %MON vort_p_sd                    =   8.7077461259543E-05
(PID.TID 0000.0001) %MON surfExpan_theta_mean         =  -3.1582380849181E-12
(PID.TID 0000.0001) %MON surfExpan_salt_mean          =  -1.2550838149367E-12
(PID.TID 0000.0001) // =======================================================
(PID.TID 0000.0001) // End MONITOR dynamic field statistics
(PID.TID 0000.0001) // =======================================================
 cg2d: Sum(rhs),rhsMax =   7.10542735760100E-15  1.29538917809809E-05
(PID.TID 0000.0001)      cg2d_init_res =   1.36350267820397E+00
(PID.TID 0000.0001)      cg2d_iters(min,last) =      -1     215
(PID.TID 0000.0001)      cg2d_last_res =   7.58253954323427E-14
(PID.TID 0000.0001) // =======================================================
(PID.TID 0000.0001) // Begin MONITOR dynamic field statistics
(PID.TID 0000.0001) // =======================================================
(PID.TID 0000.0001) %MON time_tsnumber                =                    10
(PID.TID 0000.0001) %MON time_secondsf                =   1.8000000000000E+04
(PID.TID 0000.0001) %MON dynstat_eta_max              =   4.4514642770228E-05
(PID.TID 0000.0001) %MON dynstat_eta_min              =  -3.7488508185920E-05
(PID.TID 0000.0001) %MON dynstat_eta_mean             =   2.3956724890362E-21
(PID.TID 0000.0001) %MON dynstat_eta_sd               =   1.5055349110187E-05
(PID.TID 0000.0001) %MON dynstat_eta_del2             =   9.1756628140686E-09
(PID.TID 0000.0001) %MON dynstat_uvel_max             =   6.6397606596597E-05
(PID.TID 0000.0001) %MON dynstat_uvel_min             =  -4.4171537738360E-04
(PID.TID 0000.0001) %MON dynstat_uvel_mean            =  -9.8741409757364E-09
(PID.TID 0000.0001) %MON dynstat_uvel_sd              =   3.2270642031052E-05
(PID.TID 0000.0001) %MON dynstat_uvel_del2            =   6.8737341072300E-08
(PID.TID 0000.0001) %MON dynstat_vvel_max             =   3.7283870599901E-04
(PID.TID 0000.0001) %MON dynstat_vvel_min             =  -5.6044974116276E-05
(PID.TID 0000.0001) %MON dynstat_vvel_mean            =  -2.9524475349144E-07
(PID.TID 0000.0001) %MON dynstat_vvel_sd              =   2.4183811758186E-05
(PID.TID 0000.0001) %MON dynstat_vvel_del2            =   4.7618511873296E-08
(PID.TID 0000.0001) %MON dynstat_wvel_max             =   2.2898923313009E-06
(PID.TID 0000.0001) %MON dynstat_wvel_min             =  -2.2239609275847E-06
(PID.TID 0000.0001) %MON dynstat_wvel_mean            =  -8.5953652154733E-11
(PID.TID 0000.0001) %MON dynstat_wvel_sd              =   8.9905628000185E-08
(PID.TID 0000.0001) %MON dynstat_wvel_del2            =   7.0864283037830E-10
(PID.TID 0000.0001) %MON dynstat_theta_max            =  -1.9000000000000E+00
(PID.TID 0000.0001) %MON dynstat_theta_min            =  -1.9303016360202E+00
(PID.TID 0000.0001) %MON dynstat_theta_mean           =  -1.9005587995383E+00
(PID.TID 0000.0001) %MON dynstat_theta_sd             =   2.5350194985885E-03
(PID.TID 0000.0001) %MON dynstat_theta_del2           =   2.6082398144138E-06
(PID.TID 0000.0001) %MON dynstat_salt_max             =   3.4400000000000E+01
(PID.TID 0000.0001) %MON dynstat_salt_min             =   3.4387958129846E+01
(PID.TID 0000.0001) %MON dynstat_salt_mean            =   3.4399777933064E+01
(PID.TID 0000.0001) %MON dynstat_salt_sd              =   1.0074167487391E-03
(PID.TID 0000.0001) %MON dynstat_salt_del2            =   1.0365145022480E-06
(PID.TID 0000.0001) %MON trAdv_CFL_u_max              =   1.0517358262878E-04
(PID.TID 0000.0001) %MON trAdv_CFL_v_max              =   5.5841756573375E-05
(PID.TID 0000.0001) %MON trAdv_CFL_w_max              =   1.1236270586947E-04
(PID.TID 0000.0001) %MON advcfl_uvel_max              =   1.3142978162354E-04
(PID.TID 0000.0001) %MON advcfl_vvel_max              =   6.0363817468056E-05
(PID.TID 0000.0001) %MON advcfl_wvel_max              =   1.3739353987805E-04
(PID.TID 0000.0001) %MON advcfl_W_hf_max              =   1.6510956123565E-04
(PID.TID 0000.0001) %MON pe_b_mean                    =  -1.4190247143296E-08
(PID.TID 0000.0001) %MON ke_max                       =   1.3522608673364E-07
(PID.TID 0000.0001) %MON ke_mean                      =   7.9910402909074E-10
(PID.TID 0000.0001) %MON ke_vol                       =   2.9241705273105E+14
(PID.TID 0000.0001) %MON vort_r_min                   =  -6.3125067213304E-08
(PID.TID 0000.0001) %MON vort_r_max                   =   6.1379904963825E-08
(PID.TID 0000.0001) %MON vort_a_mean                  =  -1.4007437265654E-04
(PID.TID 0000.0001) %MON vort_a_sd                    =   1.7682752327302E-06
(PID.TID 0000.0001) %MON vort_p_mean                  =  -1.5039772181789E-04
(PID.TID 0000.0001) %MON vort_p_sd                    =   8.7076509252230E-05
(PID.TID 0000.0001) %MON surfExpan_theta_mean         =  -2.4376653554093E-12
(PID.TID 0000.0001) %MON surfExpan_salt_mean          =  -9.6872821223963E-13
(PID.TID 0000.0001) // =======================================================
(PID.TID 0000.0001) // End MONITOR dynamic field statistics
(PID.TID 0000.0001) // =======================================================
 cg2d: Sum(rhs),rhsMax =  -5.68434188608080E-14  1.41546981419464E-05
(PID.TID 0000.0001)      cg2d_init_res =   1.33578028264636E+00
(PID.TID 0000.0001)      cg2d_iters(min,last) =      -1     214
(PID.TID 0000.0001)      cg2d_last_res =   8.62635702968016E-14
(PID.TID 0000.0001) // =======================================================
(PID.TID 0000.0001) // Begin MONITOR dynamic field statistics
(PID.TID 0000.0001) // =======================================================
(PID.TID 0000.0001) %MON time_tsnumber                =                    11
(PID.TID 0000.0001) %MON time_secondsf                =   1.9800000000000E+04
(PID.TID 0000.0001) %MON dynstat_eta_max              =   4.8720964885399E-05
(PID.TID 0000.0001) %MON dynstat_eta_min              =  -4.3121582138148E-05
(PID.TID 0000.0001) %MON dynstat_eta_mean             =  -1.0647433284605E-21
(PID.TID 0000.0001) %MON dynstat_eta_sd               =   1.6358975646723E-05
(PID.TID 0000.0001) %MON dynstat_eta_del2             =   9.4032379993837E-09
(PID.TID 0000.0001) %MON dynstat_uvel_max             =   8.0619141395535E-05
(PID.TID 0000.0001) %MON dynstat_uvel_min             =  -5.3354753196889E-04
(PID.TID 0000.0001) %MON dynstat_uvel_mean            =  -8.4071637864998E-09
(PID.TID 0000.0001) %MON dynstat_uvel_sd              =   3.9086065020380E-05
(PID.TID 0000.0001) %MON dynstat_uvel_del2            =   8.2902816329058E-08
(PID.TID 0000.0001) %MON dynstat_vvel_max             =   3.9208113691622E-04
(PID.TID 0000.0001) %MON dynstat_vvel_min             =  -5.9856694502759E-05
(PID.TID 0000.0001) %MON dynstat_vvel_mean            =  -1.9331291851565E-07
(PID.TID 0000.0001) %MON dynstat_vvel_sd              =   2.5321746809176E-05
(PID.TID 0000.0001) %MON dynstat_vvel_del2            =   5.0127467816492E-08
(PID.TID 0000.0001) %MON dynstat_wvel_max             =   2.7142381118624E-06
(PID.TID 0000.0001) %MON dynstat_wvel_min             =  -2.6238673509964E-06
(PID.TID 0000.0001) %MON dynstat_wvel_mean            =  -4.5595834250851E-11
(PID.TID 0000.0001) %MON dynstat_wvel_sd              =   1.0251175955995E-07
(PID.TID 0000.0001) %MON dynstat_wvel_del2            =   7.5701529661339E-10
(PID.TID 0000.0001) %MON dynstat_theta_max            =  -1.9000000000000E+00
(PID.TID 0000.0001) %MON dynstat_theta_min            =  -1.9332483129024E+00
(PID.TID 0000.0001) %MON dynstat_theta_mean           =  -1.9006131580430E+00
(PID.TID 0000.0001) %MON dynstat_theta_sd             =   2.7810686687737E-03
(PID.TID 0000.0001) %MON dynstat_theta_del2           =   2.8559559654026E-06
(PID.TID 0000.0001) %MON dynstat_salt_max             =   3.4400000000000E+01
(PID.TID 0000.0001) %MON dynstat_salt_min             =   3.4386787120453E+01
(PID.TID 0000.0001) %MON dynstat_salt_mean            =   3.4399756330994E+01
(PID.TID 0000.0001) %MON dynstat_salt_sd              =   1.1051966889708E-03
(PID.TID 0000.0001) %MON dynstat_salt_del2            =   1.1349569006509E-06
(PID.TID 0000.0001) %MON trAdv_CFL_u_max              =   1.3142979830513E-04
(PID.TID 0000.0001) %MON trAdv_CFL_v_max              =   6.0658043709433E-05
(PID.TID 0000.0001) %MON trAdv_CFL_w_max              =   1.3739353987805E-04
(PID.TID 0000.0001) %MON advcfl_uvel_max              =   1.5875389267137E-04
(PID.TID 0000.0001) %MON advcfl_vvel_max              =   6.3479230564494E-05
(PID.TID 0000.0001) %MON advcfl_wvel_max              =   1.6285428671175E-04
(PID.TID 0000.0001) %MON advcfl_W_hf_max              =   1.9254107022047E-04
(PID.TID 0000.0001) %MON pe_b_mean                    =  -1.5216450739565E-08
(PID.TID 0000.0001) %MON ke_max                       =   1.8355091845340E-07
(PID.TID 0000.0001) %MON ke_mean                      =   1.0651158793192E-09
(PID.TID 0000.0001) %MON ke_vol                       =   2.9241705273105E+14
(PID.TID 0000.0001) %MON vort_r_min                   =  -6.6382990077675E-08
(PID.TID 0000.0001) %MON vort_r_max                   =   6.4387832414477E-08
(PID.TID 0000.0001) %MON vort_a_mean                  =  -1.4007437265029E-04
(PID.TID 0000.0001) %MON vort_a_sd                    =   1.7682749579497E-06
(PID.TID 0000.0001) %MON vort_p_mean                  =  -1.5039772181118E-04
(PID.TID 0000.0001) %MON vort_p_sd                    =   8.7075514933042E-05
(PID.TID 0000.0001) %MON surfExpan_theta_mean         =  -1.3967049313902E-12
(PID.TID 0000.0001) %MON surfExpan_salt_mean          =  -5.5505053972883E-13
(PID.TID 0000.0001) // =======================================================
(PID.TID 0000.0001) // End MONITOR dynamic field statistics
(PID.TID 0000.0001) // =======================================================
 cg2d: Sum(rhs),rhsMax =  -1.42108547152020E-14  1.52468102386066E-05
(PID.TID 0000.0001)      cg2d_init_res =   1.32968393783277E+00
(PID.TID 0000.0001)      cg2d_iters(min,last) =      -1     214
(PID.TID 0000.0001)      cg2d_last_res =   7.89174134137845E-14
(PID.TID 0000.0001) // =======================================================
(PID.TID 0000.0001) // Begin MONITOR dynamic field statistics
(PID.TID 0000.0001) // =======================================================
(PID.TID 0000.0001) %MON time_tsnumber                =                    12
(PID.TID 0000.0001) %MON time_secondsf                =   2.1600000000000E+04
(PID.TID 0000.0001) %MON dynstat_eta_max              =   5.2023339791624E-05
(PID.TID 0000.0001) %MON dynstat_eta_min              =  -4.9133583060008E-05
(PID.TID 0000.0001) %MON dynstat_eta_mean             =   4.5251591459573E-21
(PID.TID 0000.0001) %MON dynstat_eta_sd               =   1.7400237541563E-05
(PID.TID 0000.0001) %MON dynstat_eta_del2             =   9.6028286533047E-09
(PID.TID 0000.0001) %MON dynstat_uvel_max             =   9.5024759810925E-05
(PID.TID 0000.0001) %MON dynstat_uvel_min             =  -6.2616453878149E-04
(PID.TID 0000.0001) %MON dynstat_uvel_mean            =  -2.2995419123190E-09
(PID.TID 0000.0001) %MON dynstat_uvel_sd              =   4.5977671539587E-05
(PID.TID 0000.0001) %MON dynstat_uvel_del2            =   9.7207214599012E-08
(PID.TID 0000.0001) %MON dynstat_vvel_max             =   4.0052234035152E-04
(PID.TID 0000.0001) %MON dynstat_vvel_min             =  -6.2184292773163E-05
(PID.TID 0000.0001) %MON dynstat_vvel_mean            =  -8.7869554300084E-08
(PID.TID 0000.0001) %MON dynstat_vvel_sd              =   2.5689238125637E-05
(PID.TID 0000.0001) %MON dynstat_vvel_del2            =   5.1286996039504E-08
(PID.TID 0000.0001) %MON dynstat_wvel_max             =   3.1334484179171E-06
(PID.TID 0000.0001) %MON dynstat_wvel_min             =  -3.0163871103242E-06
(PID.TID 0000.0001) %MON dynstat_wvel_mean            =  -6.0163706645881E-12
(PID.TID 0000.0001) %MON dynstat_wvel_sd              =   1.1464552570717E-07
(PID.TID 0000.0001) %MON dynstat_wvel_del2            =   7.8979027839611E-10
(PID.TID 0000.0001) %MON dynstat_theta_max            =  -1.9000000000000E+00
(PID.TID 0000.0001) %MON dynstat_theta_min            =  -1.9361803575144E+00
(PID.TID 0000.0001) %MON dynstat_theta_mean           =  -1.9006672486742E+00
(PID.TID 0000.0001) %MON dynstat_theta_sd             =   3.0258074173927E-03
(PID.TID 0000.0001) %MON dynstat_theta_del2           =   3.1014149072952E-06
(PID.TID 0000.0001) %MON dynstat_salt_max             =   3.4400000000000E+01
(PID.TID 0000.0001) %MON dynstat_salt_min             =   3.4385621925924E+01
(PID.TID 0000.0001) %MON dynstat_salt_mean            =   3.4399734835378E+01
(PID.TID 0000.0001) %MON dynstat_salt_sd              =   1.2024558676720E-03
(PID.TID 0000.0001) %MON dynstat_salt_del2            =   1.2325022841591E-06
(PID.TID 0000.0001) %MON trAdv_CFL_u_max              =   1.5875391282105E-04
(PID.TID 0000.0001) %MON trAdv_CFL_v_max              =   6.3788641999985E-05
(PID.TID 0000.0001) %MON trAdv_CFL_w_max              =   1.6285428671175E-04
(PID.TID 0000.0001) %MON advcfl_uvel_max              =   1.8631153182831E-04
(PID.TID 0000.0001) %MON advcfl_vvel_max              =   6.4845889270203E-05
(PID.TID 0000.0001) %MON advcfl_wvel_max              =   1.8800690507503E-04
(PID.TID 0000.0001) %MON advcfl_W_hf_max              =   2.1896612991032E-04
(PID.TID 0000.0001) %MON pe_b_mean                    =  -1.5899397900043E-08
(PID.TID 0000.0001) %MON ke_max                       =   2.3839988327085E-07
(PID.TID 0000.0001) %MON ke_mean                      =   1.3614950817907E-09
(PID.TID 0000.0001) %MON ke_vol                       =   2.9241705273105E+14
(PID.TID 0000.0001) %MON vort_r_min                   =  -6.7812164478402E-08
(PID.TID 0000.0001) %MON vort_r_max                   =   6.5594282345511E-08
(PID.TID 0000.0001) %MON vort_a_mean                  =  -1.4007437265617E-04
(PID.TID 0000.0001) %MON vort_a_sd                    =   1.7682747018685E-06
(PID.TID 0000.0001) %MON vort_p_mean                  =  -1.5039772181750E-04
(PID.TID 0000.0001) %MON vort_p_sd                    =   8.7074509048538E-05
(PID.TID 0000.0001) %MON surfExpan_theta_mean         =  -1.5816621356258E-13
(PID.TID 0000.0001) %MON surfExpan_salt_mean          =  -6.2855253288194E-14
(PID.TID 0000.0001) // =======================================================
(PID.TID 0000.0001) // End MONITOR dynamic field statistics
(PID.TID 0000.0001) // =======================================================
 cg2d: Sum(rhs),rhsMax =  -4.79616346638068E-14  1.70565183276614E-05
(PID.TID 0000.0001)      cg2d_init_res =   1.27456750737134E+00
(PID.TID 0000.0001)      cg2d_iters(min,last) =      -1     213
(PID.TID 0000.0001)      cg2d_last_res =   9.95103181484103E-14
(PID.TID 0000.0001) // =======================================================
(PID.TID 0000.0001) // Begin MONITOR dynamic field statistics
(PID.TID 0000.0001) // =======================================================
(PID.TID 0000.0001) %MON time_tsnumber                =                    13
(PID.TID 0000.0001) %MON time_secondsf                =   2.3400000000000E+04
(PID.TID 0000.0001) %MON dynstat_eta_max              =   5.4408653855308E-05
(PID.TID 0000.0001) %MON dynstat_eta_min              =  -5.5365623129569E-05
(PID.TID 0000.0001) %MON dynstat_eta_mean             =   2.1294866569211E-21
(PID.TID 0000.0001) %MON dynstat_eta_sd               =   1.8214514071827E-05
(PID.TID 0000.0001) %MON dynstat_eta_del2             =   9.8204900213791E-09
(PID.TID 0000.0001) %MON dynstat_uvel_max             =   1.0917936169897E-04
(PID.TID 0000.0001) %MON dynstat_uvel_min             =  -7.1685409216170E-04
(PID.TID 0000.0001) %MON dynstat_uvel_mean            =   7.8756168198353E-09
(PID.TID 0000.0001) %MON dynstat_uvel_sd              =   5.2737936858978E-05
(PID.TID 0000.0001) %MON dynstat_uvel_del2            =   1.1126148645597E-07
(PID.TID 0000.0001) %MON dynstat_vvel_max             =   3.9848024495447E-04
(PID.TID 0000.0001) %MON dynstat_vvel_min             =  -6.3015953644005E-05
(PID.TID 0000.0001) %MON dynstat_vvel_mean            =   8.5485242476073E-09
(PID.TID 0000.0001) %MON dynstat_vvel_sd              =   2.5299220775779E-05
(PID.TID 0000.0001) %MON dynstat_vvel_del2            =   5.1137306303589E-08
(PID.TID 0000.0001) %MON dynstat_wvel_max             =   3.5363857865048E-06
(PID.TID 0000.0001) %MON dynstat_wvel_min             =  -3.3910714848174E-06
(PID.TID 0000.0001) %MON dynstat_wvel_mean            =   2.8637770060929E-11
(PID.TID 0000.0001) %MON dynstat_wvel_sd              =   1.2612873467609E-07
(PID.TID 0000.0001) %MON dynstat_wvel_del2            =   8.0802683092528E-10
(PID.TID 0000.0001) %MON dynstat_theta_max            =  -1.9000000000000E+00
(PID.TID 0000.0001) %MON dynstat_theta_min            =  -1.9390978676234E+00
(PID.TID 0000.0001) %MON dynstat_theta_mean           =  -1.9007210728182E+00
(PID.TID 0000.0001) %MON dynstat_theta_sd             =   3.2692429435604E-03
(PID.TID 0000.0001) %MON dynstat_theta_del2           =   3.3446395365236E-06
(PID.TID 0000.0001) %MON dynstat_salt_max             =   3.4400000000000E+01
(PID.TID 0000.0001) %MON dynstat_salt_min             =   3.4384462507406E+01
(PID.TID 0000.0001) %MON dynstat_salt_mean            =   3.4399713445663E+01
(PID.TID 0000.0001) %MON dynstat_salt_sd              =   1.2991971457710E-03
(PID.TID 0000.0001) %MON dynstat_salt_del2            =   1.3291597518144E-06
(PID.TID 0000.0001) %MON trAdv_CFL_u_max              =   1.8631155547571E-04
(PID.TID 0000.0001) %MON trAdv_CFL_v_max              =   6.5161962094438E-05
(PID.TID 0000.0001) %MON trAdv_CFL_w_max              =   1.8800690507503E-04
(PID.TID 0000.0001) %MON advcfl_uvel_max              =   2.1329566868788E-04
(PID.TID 0000.0001) %MON advcfl_vvel_max              =   6.4515267283226E-05
(PID.TID 0000.0001) %MON advcfl_wvel_max              =   2.1218314719029E-04
(PID.TID 0000.0001) %MON advcfl_W_hf_max              =   2.4372989242675E-04
(PID.TID 0000.0001) %MON pe_b_mean                    =  -1.6271092317501E-08
(PID.TID 0000.0001) %MON ke_max                       =   2.9799746548701E-07
(PID.TID 0000.0001) %MON ke_mean                      =   1.6785273096577E-09
(PID.TID 0000.0001) %MON ke_vol                       =   2.9241705273105E+14
(PID.TID 0000.0001) %MON vort_r_min                   =  -6.7463552854036E-08
(PID.TID 0000.0001) %MON vort_r_max                   =   6.5058070910589E-08
(PID.TID 0000.0001) %MON vort_a_mean                  =  -1.4007437267316E-04
(PID.TID 0000.0001) %MON vort_a_sd                    =   1.7682744743169E-06
(PID.TID 0000.0001) %MON vort_p_mean                  =  -1.5039772183574E-04
(PID.TID 0000.0001) %MON vort_p_sd                    =   8.7073521834565E-05
(PID.TID 0000.0001) %MON surfExpan_theta_mean         =   1.1155543612491E-12
(PID.TID 0000.0001) %MON surfExpan_salt_mean          =   4.4332130318634E-13
(PID.TID 0000.0001) // =======================================================
(PID.TID 0000.0001) // End MONITOR dynamic field statistics
(PID.TID 0000.0001) // =======================================================
 cg2d: Sum(rhs),rhsMax =  -7.10542735760100E-14  1.92459648628293E-05
(PID.TID 0000.0001)      cg2d_init_res =   1.21033882616012E+00
(PID.TID 0000.0001)      cg2d_iters(min,last) =      -1     213
(PID.TID 0000.0001)      cg2d_last_res =   9.21791500104363E-14
(PID.TID 0000.0001) // =======================================================
(PID.TID 0000.0001) // Begin MONITOR dynamic field statistics
(PID.TID 0000.0001) // =======================================================
(PID.TID 0000.0001) %MON time_tsnumber                =                    14
(PID.TID 0000.0001) %MON time_secondsf                =   2.5200000000000E+04
(PID.TID 0000.0001) %MON dynstat_eta_max              =   5.5950027655058E-05
(PID.TID 0000.0001) %MON dynstat_eta_min              =  -6.1628043155081E-05
(PID.TID 0000.0001) %MON dynstat_eta_mean             =   1.3309291605757E-21
(PID.TID 0000.0001) %MON dynstat_eta_sd               =   1.8863901299354E-05
(PID.TID 0000.0001) %MON dynstat_eta_del2             =   1.0108716371835E-08
(PID.TID 0000.0001) %MON dynstat_uvel_max             =   1.2268426303612E-04
(PID.TID 0000.0001) %MON dynstat_uvel_min             =  -8.0316965199400E-04
(PID.TID 0000.0001) %MON dynstat_uvel_mean            =   2.1079119204260E-08
(PID.TID 0000.0001) %MON dynstat_uvel_sd              =   5.9176922791335E-05
(PID.TID 0000.0001) %MON dynstat_uvel_del2            =   1.2472086283719E-07
(PID.TID 0000.0001) %MON dynstat_vvel_max             =   3.8694219267569E-04
(PID.TID 0000.0001) %MON dynstat_vvel_min             =  -6.2432327312173E-05
(PID.TID 0000.0001) %MON dynstat_vvel_mean            =   8.5419941311548E-08
(PID.TID 0000.0001) %MON dynstat_vvel_sd              =   2.4214239092778E-05
(PID.TID 0000.0001) %MON dynstat_vvel_del2            =   4.9802010959311E-08
(PID.TID 0000.0001) %MON dynstat_wvel_max             =   3.9137138783048E-06
(PID.TID 0000.0001) %MON dynstat_wvel_min             =  -3.7392561601403E-06
(PID.TID 0000.0001) %MON dynstat_wvel_mean            =   5.4861039781325E-11
(PID.TID 0000.0001) %MON dynstat_wvel_sd              =   1.3681954836313E-07
(PID.TID 0000.0001) %MON dynstat_wvel_del2            =   8.1389193977255E-10
(PID.TID 0000.0001) %MON dynstat_theta_max            =  -1.9000000000000E+00
(PID.TID 0000.0001) %MON dynstat_theta_min            =  -1.9420009393687E+00
(PID.TID 0000.0001) %MON dynstat_theta_mean           =  -1.9007746318536E+00
(PID.TID 0000.0001) %MON dynstat_theta_sd             =   3.5113824020468E-03
(PID.TID 0000.0001) %MON dynstat_theta_del2           =   3.5856523624544E-06
(PID.TID 0000.0001) %MON dynstat_salt_max             =   3.4400000000000E+01
(PID.TID 0000.0001) %MON dynstat_salt_min             =   3.4383308826695E+01
(PID.TID 0000.0001) %MON dynstat_salt_mean            =   3.4399692161302E+01
(PID.TID 0000.0001) %MON dynstat_salt_sd              =   1.3954233665736E-03
(PID.TID 0000.0001) %MON dynstat_salt_del2            =   1.4249382488393E-06
(PID.TID 0000.0001) %MON trAdv_CFL_u_max              =   2.1329569576021E-04
(PID.TID 0000.0001) %MON trAdv_CFL_v_max              =   6.4829728584720E-05
(PID.TID 0000.0001) %MON trAdv_CFL_w_max              =   2.1218314719029E-04
(PID.TID 0000.0001) %MON advcfl_uvel_max              =   2.3897834979957E-04
(PID.TID 0000.0001) %MON advcfl_vvel_max              =   6.2647218525180E-05
(PID.TID 0000.0001) %MON advcfl_wvel_max              =   2.3482283269829E-04
(PID.TID 0000.0001) %MON advcfl_W_hf_max              =   2.6633688995028E-04
(PID.TID 0000.0001) %MON pe_b_mean                    =  -1.6396387110623E-08
(PID.TID 0000.0001) %MON ke_max                       =   3.6017146050248E-07
(PID.TID 0000.0001) %MON ke_mean                      =   2.0049421824428E-09
(PID.TID 0000.0001) %MON ke_vol                       =   2.9241705273105E+14
(PID.TID 0000.0001) %MON vort_r_min                   =  -6.5501892024660E-08
(PID.TID 0000.0001) %MON vort_r_max                   =   6.2948675569563E-08
(PID.TID 0000.0001) %MON vort_a_mean                  =  -1.4007437269865E-04
(PID.TID 0000.0001) %MON vort_a_sd                    =   1.7682742843176E-06
(PID.TID 0000.0001) %MON vort_p_mean                  =  -1.5039772186311E-04
(PID.TID 0000.0001) %MON vort_p_sd                    =   8.7072581100363E-05
(PID.TID 0000.0001) %MON surfExpan_theta_mean         =   2.2422523402384E-12
(PID.TID 0000.0001) %MON surfExpan_salt_mean          =   8.9107108002219E-13
(PID.TID 0000.0001) // =======================================================
(PID.TID 0000.0001) // End MONITOR dynamic field statistics
(PID.TID 0000.0001) // =======================================================
 cg2d: Sum(rhs),rhsMax =   7.10542735760100E-15  2.15139450551143E-05
(PID.TID 0000.0001)      cg2d_init_res =   1.15871538672503E+00
(PID.TID 0000.0001)      cg2d_iters(min,last) =      -1     213
(PID.TID 0000.0001)      cg2d_last_res =   8.30006148833545E-14
(PID.TID 0000.0001) // =======================================================
(PID.TID 0000.0001) // Begin MONITOR dynamic field statistics
(PID.TID 0000.0001) // =======================================================
(PID.TID 0000.0001) %MON time_tsnumber                =                    15
(PID.TID 0000.0001) %MON time_secondsf                =   2.7000000000000E+04
(PID.TID 0000.0001) %MON dynstat_eta_max              =   5.7115676614945E-05
(PID.TID 0000.0001) %MON dynstat_eta_min              =  -6.7706916522908E-05
(PID.TID 0000.0001) %MON dynstat_eta_mean             =   1.8633008248059E-21
(PID.TID 0000.0001) %MON dynstat_eta_sd               =   1.9421892604588E-05
(PID.TID 0000.0001) %MON dynstat_eta_del2             =   1.0523113624905E-08
(PID.TID 0000.0001) %MON dynstat_uvel_max             =   1.3520129282072E-04
(PID.TID 0000.0001) %MON dynstat_uvel_min             =  -8.8307608942297E-04
(PID.TID 0000.0001) %MON dynstat_uvel_mean            =   3.6074146634459E-08
(PID.TID 0000.0001) %MON dynstat_uvel_sd              =   6.5133880635031E-05
(PID.TID 0000.0001) %MON dynstat_uvel_del2            =   1.3730402238240E-07
(PID.TID 0000.0001) %MON dynstat_vvel_max             =   3.6737108625223E-04
(PID.TID 0000.0001) %MON dynstat_vvel_min             =  -6.0804260407584E-05
(PID.TID 0000.0001) %MON dynstat_vvel_mean            =   1.3526429843100E-07
(PID.TID 0000.0001) %MON dynstat_vvel_sd              =   2.2540144678803E-05
(PID.TID 0000.0001) %MON dynstat_vvel_del2            =   4.7474497942780E-08
(PID.TID 0000.0001) %MON dynstat_wvel_max             =   4.2583671340822E-06
(PID.TID 0000.0001) %MON dynstat_wvel_min             =  -4.0544978512696E-06
(PID.TID 0000.0001) %MON dynstat_wvel_mean            =   7.0141290233445E-11
(PID.TID 0000.0001) %MON dynstat_wvel_sd              =   1.4661239312542E-07
(PID.TID 0000.0001) %MON dynstat_wvel_del2            =   8.1039221584928E-10
(PID.TID 0000.0001) %MON dynstat_theta_max            =  -1.9000000000000E+00
(PID.TID 0000.0001) %MON dynstat_theta_min            =  -1.9448896661896E+00
(PID.TID 0000.0001) %MON dynstat_theta_mean           =  -1.9008279271511E+00
(PID.TID 0000.0001) %MON dynstat_theta_sd             =   3.7522329034276E-03
(PID.TID 0000.0001) %MON dynstat_theta_del2           =   3.8244755881396E-06
(PID.TID 0000.0001) %MON dynstat_salt_max             =   3.4400000000000E+01
(PID.TID 0000.0001) %MON dynstat_salt_min             =   3.4382160846656E+01
(PID.TID 0000.0001) %MON dynstat_salt_mean            =   3.4399670981751E+01
(PID.TID 0000.0001) %MON dynstat_salt_sd              =   1.4911373558222E-03
(PID.TID 0000.0001) %MON dynstat_salt_del2            =   1.5198465987267E-06
(PID.TID 0000.0001) %MON trAdv_CFL_u_max              =   2.3897838013165E-04
(PID.TID 0000.0001) %MON trAdv_CFL_v_max              =   6.2952574554876E-05
(PID.TID 0000.0001) %MON trAdv_CFL_w_max              =   2.3482283269829E-04
(PID.TID 0000.0001) %MON advcfl_uvel_max              =   2.6275403468474E-04
(PID.TID 0000.0001) %MON advcfl_vvel_max              =   5.9478591779122E-05
(PID.TID 0000.0001) %MON advcfl_wvel_max              =   2.5550202804493E-04
(PID.TID 0000.0001) %MON advcfl_W_hf_max              =   2.8647094459418E-04
(PID.TID 0000.0001) %MON pe_b_mean                    =  -1.6363664270288E-08
(PID.TID 0000.0001) %MON ke_max                       =   4.2258210916197E-07
(PID.TID 0000.0001) %MON ke_mean                      =   2.3289734345900E-09
(PID.TID 0000.0001) %MON ke_vol                       =   2.9241705273105E+14
(PID.TID 0000.0001) %MON vort_r_min                   =  -6.2187405804098E-08
(PID.TID 0000.0001) %MON vort_r_max                   =   5.9527555182065E-08
(PID.TID 0000.0001) %MON vort_a_mean                  =  -1.4007437272908E-04
(PID.TID 0000.0001) %MON vort_a_sd                    =   1.7682741392213E-06
(PID.TID 0000.0001) %MON vort_p_mean                  =  -1.5039772189578E-04
(PID.TID 0000.0001) %MON vort_p_sd                    =   8.7071710551685E-05
(PID.TID 0000.0001) %MON surfExpan_theta_mean         =   3.0442532567024E-12
(PID.TID 0000.0001) %MON surfExpan_salt_mean          =   1.2097862442154E-12
(PID.TID 0000.0001) // =======================================================
(PID.TID 0000.0001) // End MONITOR dynamic field statistics
(PID.TID 0000.0001) // =======================================================
 cg2d: Sum(rhs),rhsMax =   2.30926389122033E-14  2.38380564987241E-05
(PID.TID 0000.0001)      cg2d_init_res =   1.11735804901997E+00
(PID.TID 0000.0001)      cg2d_iters(min,last) =      -1     212
(PID.TID 0000.0001)      cg2d_last_res =   8.20562844309599E-14
(PID.TID 0000.0001) // =======================================================
(PID.TID 0000.0001) // Begin MONITOR dynamic field statistics
(PID.TID 0000.0001) // =======================================================
(PID.TID 0000.0001) %MON time_tsnumber                =                    16
(PID.TID 0000.0001) %MON time_secondsf                =   2.8800000000000E+04
(PID.TID 0000.0001) %MON dynstat_eta_max              =   5.7817095596204E-05
(PID.TID 0000.0001) %MON dynstat_eta_min              =  -7.3385029313994E-05
(PID.TID 0000.0001) %MON dynstat_eta_mean             =  -5.3237166423027E-22
(PID.TID 0000.0001) %MON dynstat_eta_sd               =   1.9958317491399E-05
(PID.TID 0000.0001) %MON dynstat_eta_del2             =   1.1116682437202E-08
(PID.TID 0000.0001) %MON dynstat_uvel_max             =   1.4647151960174E-04
(PID.TID 0000.0001) %MON dynstat_uvel_min             =  -9.5506156551483E-04
(PID.TID 0000.0001) %MON dynstat_uvel_mean            =   5.1588373641403E-08
(PID.TID 0000.0001) %MON dynstat_uvel_sd              =   7.0486371264793E-05
(PID.TID 0000.0001) %MON dynstat_uvel_del2            =   1.4880661873987E-07
(PID.TID 0000.0001) %MON dynstat_vvel_max             =   3.4213310088596E-04
(PID.TID 0000.0001) %MON dynstat_vvel_min             =  -5.8300093145615E-05
(PID.TID 0000.0001) %MON dynstat_vvel_mean            =   1.5418097494372E-07
(PID.TID 0000.0001) %MON dynstat_vvel_sd              =   2.0417329146628E-05
(PID.TID 0000.0001) %MON dynstat_vvel_del2            =   4.4400707928983E-08
(PID.TID 0000.0001) %MON dynstat_wvel_max             =   4.5658397017395E-06
(PID.TID 0000.0001) %MON dynstat_wvel_min             =  -4.3328400498318E-06
(PID.TID 0000.0001) %MON dynstat_wvel_mean            =   7.3195030584584E-11
(PID.TID 0000.0001) %MON dynstat_wvel_sd              =   1.5543835891546E-07
(PID.TID 0000.0001) %MON dynstat_wvel_del2            =   8.0101685826116E-10
(PID.TID 0000.0001) %MON dynstat_theta_max            =  -1.9000000000000E+00
(PID.TID 0000.0001) %MON dynstat_theta_min            =  -1.9477641379368E+00
(PID.TID 0000.0001) %MON dynstat_theta_mean           =  -1.9008809600737E+00
(PID.TID 0000.0001) %MON dynstat_theta_sd             =   3.9918015146862E-03
(PID.TID 0000.0001) %MON dynstat_theta_del2           =   4.0611311939432E-06
(PID.TID 0000.0001) %MON dynstat_salt_max             =   3.4400000000000E+01
(PID.TID 0000.0001) %MON dynstat_salt_min             =   3.4381018531584E+01
(PID.TID 0000.0001) %MON dynstat_salt_mean            =   3.4399649906467E+01
(PID.TID 0000.0001) %MON dynstat_salt_sd              =   1.5863419219365E-03
(PID.TID 0000.0001) %MON dynstat_salt_del2            =   1.6138935364730E-06
(PID.TID 0000.0001) %MON trAdv_CFL_u_max              =   2.6275406803452E-04
(PID.TID 0000.0001) %MON trAdv_CFL_v_max              =   5.9768503239921E-05
(PID.TID 0000.0001) %MON trAdv_CFL_w_max              =   2.5550202804493E-04
(PID.TID 0000.0001) %MON advcfl_uvel_max              =   2.8417288466650E-04
(PID.TID 0000.0001) %MON advcfl_vvel_max              =   5.5392478622419E-05
(PID.TID 0000.0001) %MON advcfl_wvel_max              =   2.7395038210437E-04
(PID.TID 0000.0001) %MON advcfl_W_hf_max              =   3.0400161600195E-04
(PID.TID 0000.0001) %MON pe_b_mean                    =  -1.6273736081125E-08
(PID.TID 0000.0001) %MON ke_max                       =   4.8297808793689E-07
(PID.TID 0000.0001) %MON ke_mean                      =   2.6394634012970E-09
(PID.TID 0000.0001) %MON ke_vol                       =   2.9241705273105E+14
(PID.TID 0000.0001) %MON vort_r_min                   =  -5.7852523579022E-08
(PID.TID 0000.0001) %MON vort_r_max                   =   5.5124752349478E-08
(PID.TID 0000.0001) %MON vort_a_mean                  =  -1.4007437276050E-04
(PID.TID 0000.0001) %MON vort_a_sd                    =   1.7682740440093E-06
(PID.TID 0000.0001) %MON vort_p_mean                  =  -1.5039772192952E-04
(PID.TID 0000.0001) %MON vort_p_sd                    =   8.7070928456779E-05
(PID.TID 0000.0001) %MON surfExpan_theta_mean         =   3.3730895253761E-12
(PID.TID 0000.0001) %MON surfExpan_salt_mean          =   1.3404657773846E-12
(PID.TID 0000.0001) // =======================================================
(PID.TID 0000.0001) // End MONITOR dynamic field statistics
(PID.TID 0000.0001) // =======================================================
 cg2d: Sum(rhs),rhsMax =  -7.10542735760100E-15  2.61963227642843E-05
(PID.TID 0000.0001)      cg2d_init_res =   1.08441081014461E+00
(PID.TID 0000.0001)      cg2d_iters(min,last) =      -1     212
(PID.TID 0000.0001)      cg2d_last_res =   7.77644207286988E-14
(PID.TID 0000.0001) // =======================================================
(PID.TID 0000.0001) // Begin MONITOR dynamic field statistics
(PID.TID 0000.0001) // =======================================================
(PID.TID 0000.0001) %MON time_tsnumber                =                    17
(PID.TID 0000.0001) %MON time_secondsf                =   3.0600000000000E+04
(PID.TID 0000.0001) %MON dynstat_eta_max              =   5.8261280702965E-05
(PID.TID 0000.0001) %MON dynstat_eta_min              =  -7.8469174942599E-05
(PID.TID 0000.0001) %MON dynstat_eta_mean             =  -3.9927874817270E-21
(PID.TID 0000.0001) %MON dynstat_eta_sd               =   2.0528767351146E-05
(PID.TID 0000.0001) %MON dynstat_eta_del2             =   1.1933189846197E-08
(PID.TID 0000.0001) %MON dynstat_uvel_max             =   1.5632780440745E-04
(PID.TID 0000.0001) %MON dynstat_uvel_min             =  -1.0182077334882E-03
(PID.TID 0000.0001) %MON dynstat_uvel_mean            =   6.6408194504373E-08
(PID.TID 0000.0001) %MON dynstat_uvel_sd              =   7.5156424344936E-05
(PID.TID 0000.0001) %MON dynstat_uvel_del2            =   1.5910869998017E-07
(PID.TID 0000.0001) %MON dynstat_vvel_max             =   3.1532384467695E-04
(PID.TID 0000.0001) %MON dynstat_vvel_min             =  -5.5091538725372E-05
(PID.TID 0000.0001) %MON dynstat_vvel_mean            =   1.4188771742330E-07
(PID.TID 0000.0001) %MON dynstat_vvel_sd              =   1.8010193568709E-05
(PID.TID 0000.0001) %MON dynstat_vvel_del2            =   4.0859540705528E-08
(PID.TID 0000.0001) %MON dynstat_wvel_max             =   4.8342903059731E-06
(PID.TID 0000.0001) %MON dynstat_wvel_min             =  -4.5729037947795E-06
(PID.TID 0000.0001) %MON dynstat_wvel_mean            =   6.4046788525615E-11
(PID.TID 0000.0001) %MON dynstat_wvel_sd              =   1.6326642856430E-07
(PID.TID 0000.0001) %MON dynstat_wvel_del2            =   7.8931360714456E-10
(PID.TID 0000.0001) %MON dynstat_theta_max            =  -1.9000000000000E+00
(PID.TID 0000.0001) %MON dynstat_theta_min            =  -1.9506244402413E+00
(PID.TID 0000.0001) %MON dynstat_theta_mean           =  -1.9009337319771E+00
(PID.TID 0000.0001) %MON dynstat_theta_sd             =   4.2300952602428E-03
(PID.TID 0000.0001) %MON dynstat_theta_del2           =   4.2956410168484E-06
(PID.TID 0000.0001) %MON dynstat_salt_max             =   3.4400000000000E+01
(PID.TID 0000.0001) %MON dynstat_salt_min             =   3.4379881847448E+01
(PID.TID 0000.0001) %MON dynstat_salt_mean            =   3.4399628934913E+01
(PID.TID 0000.0001) %MON dynstat_salt_sd              =   1.6810398564206E-03
(PID.TID 0000.0001) %MON dynstat_salt_del2            =   1.7070877400955E-06
(PID.TID 0000.0001) %MON trAdv_CFL_u_max              =   2.8417292073486E-04
(PID.TID 0000.0001) %MON trAdv_CFL_v_max              =   5.5654555002368E-05
(PID.TID 0000.0001) %MON trAdv_CFL_w_max              =   2.7395038210437E-04
(PID.TID 0000.0001) %MON advcfl_uvel_max              =   3.0296165112572E-04
(PID.TID 0000.0001) %MON advcfl_vvel_max              =   5.1051971528557E-05
(PID.TID 0000.0001) %MON advcfl_wvel_max              =   2.9005741835839E-04
(PID.TID 0000.0001) %MON advcfl_W_hf_max              =   3.1897808117005E-04
(PID.TID 0000.0001) %MON pe_b_mean                    =  -1.6228457737236E-08
(PID.TID 0000.0001) %MON ke_max                       =   5.3943201106051E-07
(PID.TID 0000.0001) %MON ke_mean                      =   2.9268955482245E-09
(PID.TID 0000.0001) %MON ke_vol                       =   2.9241705273105E+14
(PID.TID 0000.0001) %MON vort_r_min                   =  -5.2875417646700E-08
(PID.TID 0000.0001) %MON vort_r_max                   =   5.0185340250844E-08
(PID.TID 0000.0001) %MON vort_a_mean                  =  -1.4007437278902E-04
(PID.TID 0000.0001) %MON vort_a_sd                    =   1.7682740019269E-06
(PID.TID 0000.0001) %MON vort_p_mean                  =  -1.5039772196014E-04
(PID.TID 0000.0001) %MON vort_p_sd                    =   8.7070246728843E-05
(PID.TID 0000.0001) %MON surfExpan_theta_mean         =   3.1303001673835E-12
(PID.TID 0000.0001) %MON surfExpan_salt_mean          =   1.2439812865135E-12
(PID.TID 0000.0001) // =======================================================
(PID.TID 0000.0001) // End MONITOR dynamic field statistics
(PID.TID 0000.0001) // =======================================================
 cg2d: Sum(rhs),rhsMax =  -3.81916720471054E-14  2.85684161571725E-05
(PID.TID 0000.0001)      cg2d_init_res =   1.05833651464173E+00
(PID.TID 0000.0001)      cg2d_iters(min,last) =      -1     212
(PID.TID 0000.0001)      cg2d_last_res =   7.03779627113683E-14
(PID.TID 0000.0001) // =======================================================
(PID.TID 0000.0001) // Begin MONITOR dynamic field statistics
(PID.TID 0000.0001) // =======================================================
(PID.TID 0000.0001) %MON time_tsnumber                =                    18
(PID.TID 0000.0001) %MON time_secondsf                =   3.2400000000000E+04
(PID.TID 0000.0001) %MON dynstat_eta_max              =   5.8739369385206E-05
(PID.TID 0000.0001) %MON dynstat_eta_min              =  -8.2815443858522E-05
(PID.TID 0000.0001) %MON dynstat_eta_mean             =  -1.5971149926908E-21
(PID.TID 0000.0001) %MON dynstat_eta_sd               =   2.1171129977466E-05
(PID.TID 0000.0001) %MON dynstat_eta_del2             =   1.3002258222642E-08
(PID.TID 0000.0001) %MON dynstat_uvel_max             =   1.6470075590687E-04
(PID.TID 0000.0001) %MON dynstat_uvel_min             =  -1.0722077822372E-03
(PID.TID 0000.0001) %MON dynstat_uvel_mean            =   7.9451913305224E-08
(PID.TID 0000.0001) %MON dynstat_uvel_sd              =   7.9113476427703E-05
(PID.TID 0000.0001) %MON dynstat_uvel_del2            =   1.6817597961674E-07
(PID.TID 0000.0001) %MON dynstat_vvel_max             =   2.8679320893579E-04
(PID.TID 0000.0001) %MON dynstat_vvel_min             =  -5.1464460855643E-05
(PID.TID 0000.0001) %MON dynstat_vvel_mean            =   1.0132972717046E-07
(PID.TID 0000.0001) %MON dynstat_vvel_sd              =   1.5495586318757E-05
(PID.TID 0000.0001) %MON dynstat_vvel_del2            =   3.7142052961194E-08
(PID.TID 0000.0001) %MON dynstat_wvel_max             =   5.0644695070625E-06
(PID.TID 0000.0001) %MON dynstat_wvel_min             =  -4.8334745918003E-06
(PID.TID 0000.0001) %MON dynstat_wvel_mean            =   4.3948021788514E-11
(PID.TID 0000.0001) %MON dynstat_wvel_sd              =   1.7010546833035E-07
(PID.TID 0000.0001) %MON dynstat_wvel_del2            =   7.7844816107713E-10
(PID.TID 0000.0001) %MON dynstat_theta_max            =  -1.9000000000000E+00
(PID.TID 0000.0001) %MON dynstat_theta_min            =  -1.9534706541919E+00
(PID.TID 0000.0001) %MON dynstat_theta_mean           =  -1.9009862442093E+00
(PID.TID 0000.0001) %MON dynstat_theta_sd             =   4.4671211232927E-03
(PID.TID 0000.0001) %MON dynstat_theta_del2           =   4.5280268188197E-06
(PID.TID 0000.0001) %MON dynstat_salt_max             =   3.4400000000000E+01
(PID.TID 0000.0001) %MON dynstat_salt_min             =   3.4378750762024E+01
(PID.TID 0000.0001) %MON dynstat_salt_mean            =   3.4399608066552E+01
(PID.TID 0000.0001) %MON dynstat_salt_sd              =   1.7752339343967E-03
(PID.TID 0000.0001) %MON dynstat_salt_del2            =   1.7994378577989E-06
(PID.TID 0000.0001) %MON trAdv_CFL_u_max              =   3.0296168957881E-04
(PID.TID 0000.0001) %MON trAdv_CFL_v_max              =   5.1293511828254E-05
(PID.TID 0000.0001) %MON trAdv_CFL_w_max              =   2.9005741835839E-04
(PID.TID 0000.0001) %MON advcfl_uvel_max              =   3.1902904424385E-04
(PID.TID 0000.0001) %MON advcfl_vvel_max              =   4.6432767405121E-05
(PID.TID 0000.0001) %MON advcfl_wvel_max              =   3.0386817042375E-04
(PID.TID 0000.0001) %MON advcfl_W_hf_max              =   3.3161181630308E-04
(PID.TID 0000.0001) %MON pe_b_mean                    =  -1.6320360449174E-08
(PID.TID 0000.0001) %MON ke_max                       =   5.9053262320837E-07
(PID.TID 0000.0001) %MON ke_mean                      =   3.1842579061495E-09
(PID.TID 0000.0001) %MON ke_vol                       =   2.9241705273105E+14
(PID.TID 0000.0001) %MON vort_r_min                   =  -4.7652264998858E-08
(PID.TID 0000.0001) %MON vort_r_max                   =   5.2163979756417E-08
(PID.TID 0000.0001) %MON vort_a_mean                  =  -1.4007437281120E-04
(PID.TID 0000.0001) %MON vort_a_sd                    =   1.7682740145217E-06
(PID.TID 0000.0001) %MON vort_p_mean                  =  -1.5039772198395E-04
(PID.TID 0000.0001) %MON vort_p_sd                    =   8.7069670463886E-05
(PID.TID 0000.0001) %MON surfExpan_theta_mean         =   2.2810976450314E-12
(PID.TID 0000.0001) %MON surfExpan_salt_mean          =   9.0650820412682E-13
(PID.TID 0000.0001) // =======================================================
(PID.TID 0000.0001) // End MONITOR dynamic field statistics
(PID.TID 0000.0001) // =======================================================
 cg2d: Sum(rhs),rhsMax =  -4.08562073062058E-14  3.09368257884271E-05
(PID.TID 0000.0001)      cg2d_init_res =   1.03782687901847E+00
(PID.TID 0000.0001)      cg2d_iters(min,last) =      -1     211
(PID.TID 0000.0001)      cg2d_last_res =   9.47771951305007E-14
(PID.TID 0000.0001) // =======================================================
(PID.TID 0000.0001) // Begin MONITOR dynamic field statistics
(PID.TID 0000.0001) // =======================================================
(PID.TID 0000.0001) %MON time_tsnumber                =                    19
(PID.TID 0000.0001) %MON time_secondsf                =   3.4200000000000E+04
(PID.TID 0000.0001) %MON dynstat_eta_max              =   5.9271054716350E-05
(PID.TID 0000.0001) %MON dynstat_eta_min              =  -8.6347020743782E-05
(PID.TID 0000.0001) %MON dynstat_eta_mean             =  -2.6618583211513E-22
(PID.TID 0000.0001) %MON dynstat_eta_sd               =   2.1908709339738E-05
(PID.TID 0000.0001) %MON dynstat_eta_del2             =   1.4338174976743E-08
(PID.TID 0000.0001) %MON dynstat_uvel_max             =   1.7161808267447E-04
(PID.TID 0000.0001) %MON dynstat_uvel_min             =  -1.1173591816226E-03
(PID.TID 0000.0001) %MON dynstat_uvel_mean            =   8.9842452552421E-08
(PID.TID 0000.0001) %MON dynstat_uvel_sd              =   8.2374051058249E-05
(PID.TID 0000.0001) %MON dynstat_uvel_del2            =   1.7605532408012E-07
(PID.TID 0000.0001) %MON dynstat_vvel_max             =   2.5875471130102E-04
(PID.TID 0000.0001) %MON dynstat_vvel_min             =  -4.7708845112699E-05
(PID.TID 0000.0001) %MON dynstat_vvel_mean            =   3.7984315690779E-08
(PID.TID 0000.0001) %MON dynstat_vvel_sd              =   1.3050801295877E-05
(PID.TID 0000.0001) %MON dynstat_vvel_del2            =   3.3530450376339E-08
(PID.TID 0000.0001) %MON dynstat_wvel_max             =   5.2658535316472E-06
(PID.TID 0000.0001) %MON dynstat_wvel_min             =  -5.0707198209798E-06
(PID.TID 0000.0001) %MON dynstat_wvel_mean            =   1.5158278983754E-11
(PID.TID 0000.0001) %MON dynstat_wvel_sd              =   1.7600651285833E-07
(PID.TID 0000.0001) %MON dynstat_wvel_del2            =   7.7083393255148E-10
(PID.TID 0000.0001) %MON dynstat_theta_max            =  -1.9000000000000E+00
(PID.TID 0000.0001) %MON dynstat_theta_min            =  -1.9563028563475E+00
(PID.TID 0000.0001) %MON dynstat_theta_mean           =  -1.9010384981117E+00
(PID.TID 0000.0001) %MON dynstat_theta_sd             =   4.7028860473026E-03
(PID.TID 0000.0001) %MON dynstat_theta_del2           =   4.7583103386957E-06
(PID.TID 0000.0001) %MON dynstat_salt_max             =   3.4400000000000E+01
(PID.TID 0000.0001) %MON dynstat_salt_min             =   3.4377625244887E+01
(PID.TID 0000.0001) %MON dynstat_salt_mean            =   3.4399587300851E+01
(PID.TID 0000.0001) %MON dynstat_salt_sd              =   1.8689269151982E-03
(PID.TID 0000.0001) %MON dynstat_salt_del2            =   1.8909525285976E-06
(PID.TID 0000.0001) %MON trAdv_CFL_u_max              =   3.1902908473628E-04
(PID.TID 0000.0001) %MON trAdv_CFL_v_max              =   4.6652453035647E-05
(PID.TID 0000.0001) %MON trAdv_CFL_w_max              =   3.0386817042375E-04
(PID.TID 0000.0001) %MON advcfl_uvel_max              =   3.3246357440750E-04
(PID.TID 0000.0001) %MON advcfl_vvel_max              =   4.1893242065956E-05
(PID.TID 0000.0001) %MON advcfl_wvel_max              =   3.1595121189883E-04
(PID.TID 0000.0001) %MON advcfl_W_hf_max              =   3.4224997392978E-04
(PID.TID 0000.0001) %MON pe_b_mean                    =  -1.6624302782909E-08
(PID.TID 0000.0001) %MON ke_max                       =   6.3551349153576E-07
(PID.TID 0000.0001) %MON ke_mean                      =   3.4076680148627E-09
(PID.TID 0000.0001) %MON ke_vol                       =   2.9241705273105E+14
(PID.TID 0000.0001) %MON vort_r_min                   =  -4.2570108053730E-08
(PID.TID 0000.0001) %MON vort_r_max                   =   5.4996510075131E-08
(PID.TID 0000.0001) %MON vort_a_mean                  =  -1.4007437282433E-04
(PID.TID 0000.0001) %MON vort_a_sd                    =   1.7682740822052E-06
(PID.TID 0000.0001) %MON vort_p_mean                  =  -1.5039772199805E-04
(PID.TID 0000.0001) %MON vort_p_sd                    =   8.7069197939501E-05
(PID.TID 0000.0001) %MON surfExpan_theta_mean         =   8.5907308022285E-13
(PID.TID 0000.0001) %MON surfExpan_salt_mean          =   3.4139564208745E-13
(PID.TID 0000.0001) // =======================================================
(PID.TID 0000.0001) // End MONITOR dynamic field statistics
(PID.TID 0000.0001) // =======================================================
 cg2d: Sum(rhs),rhsMax =  -4.70734562441066E-14  3.32878622924174E-05
(PID.TID 0000.0001)      cg2d_init_res =   1.02175886281550E+00
(PID.TID 0000.0001)      cg2d_iters(min,last) =      -1     210
(PID.TID 0000.0001)      cg2d_last_res =   9.62387737850643E-14
(PID.TID 0000.0001) // =======================================================
(PID.TID 0000.0001) // Begin MONITOR dynamic field statistics
(PID.TID 0000.0001) // =======================================================
(PID.TID 0000.0001) %MON time_tsnumber                =                    20
(PID.TID 0000.0001) %MON time_secondsf                =   3.6000000000000E+04
(PID.TID 0000.0001) %MON dynstat_eta_max              =   6.0039166841283E-05
(PID.TID 0000.0001) %MON dynstat_eta_min              =  -8.9062207563646E-05
(PID.TID 0000.0001) %MON dynstat_eta_mean             =  -1.5971149926908E-21
(PID.TID 0000.0001) %MON dynstat_eta_sd               =   2.2756509855302E-05
(PID.TID 0000.0001) %MON dynstat_eta_del2             =   1.5942294997304E-08
(PID.TID 0000.0001) %MON dynstat_uvel_max             =   1.7719739876576E-04
(PID.TID 0000.0001) %MON dynstat_uvel_min             =  -1.1545101938547E-03
(PID.TID 0000.0001) %MON dynstat_uvel_mean            =   9.6973403370353E-08
(PID.TID 0000.0001) %MON dynstat_uvel_sd              =   8.4998358816372E-05
(PID.TID 0000.0001) %MON dynstat_uvel_del2            =   1.8286518180251E-07
(PID.TID 0000.0001) %MON dynstat_vvel_max             =   2.3325734390054E-04
(PID.TID 0000.0001) %MON dynstat_vvel_min             =  -4.4100799552447E-05
(PID.TID 0000.0001) %MON dynstat_vvel_mean            =  -4.0998058905897E-08
(PID.TID 0000.0001) %MON dynstat_vvel_sd              =   1.0841280894395E-05
(PID.TID 0000.0001) %MON dynstat_vvel_del2            =   3.0277802314838E-08
(PID.TID 0000.0001) %MON dynstat_wvel_max             =   5.4555610064729E-06
(PID.TID 0000.0001) %MON dynstat_wvel_min             =  -5.2755511970845E-06
(PID.TID 0000.0001) %MON dynstat_wvel_mean            =  -1.9370025532355E-11
(PID.TID 0000.0001) %MON dynstat_wvel_sd              =   1.8106455102325E-07
(PID.TID 0000.0001) %MON dynstat_wvel_del2            =   7.6793561224597E-10
(PID.TID 0000.0001) %MON dynstat_theta_max            =  -1.9000000000000E+00
(PID.TID 0000.0001) %MON dynstat_theta_min            =  -1.9591211190764E+00
(PID.TID 0000.0001) %MON dynstat_theta_mean           =  -1.9010904950185E+00
(PID.TID 0000.0001) %MON dynstat_theta_sd             =   4.9373969374772E-03
(PID.TID 0000.0001) %MON dynstat_theta_del2           =   4.9865133236158E-06
(PID.TID 0000.0001) %MON dynstat_salt_max             =   3.4400000000000E+01
(PID.TID 0000.0001) %MON dynstat_salt_min             =   3.4376505267279E+01
(PID.TID 0000.0001) %MON dynstat_salt_mean            =   3.4399566637280E+01
(PID.TID 0000.0001) %MON dynstat_salt_sd              =   1.9621215429536E-03
(PID.TID 0000.0001) %MON dynstat_salt_del2            =   1.9816403948049E-06
(PID.TID 0000.0001) %MON trAdv_CFL_u_max              =   3.3246361660510E-04
(PID.TID 0000.0001) %MON trAdv_CFL_v_max              =   4.2091450008586E-05
(PID.TID 0000.0001) %MON trAdv_CFL_w_max              =   3.1595121189883E-04
(PID.TID 0000.0001) %MON advcfl_uvel_max              =   3.4351763698891E-04
(PID.TID 0000.0001) %MON advcfl_vvel_max              =   3.7765134101536E-05
(PID.TID 0000.0001) %MON advcfl_wvel_max              =   3.2733366038837E-04
(PID.TID 0000.0001) %MON advcfl_W_hf_max              =   3.5134181923420E-04
(PID.TID 0000.0001) %MON pe_b_mean                    =  -1.7191768842579E-08
(PID.TID 0000.0001) %MON ke_max                       =   6.7431313623705E-07
(PID.TID 0000.0001) %MON ke_mean                      =   3.5967204798427E-09
(PID.TID 0000.0001) %MON ke_vol                       =   2.9241705273105E+14
(PID.TID 0000.0001) %MON vort_r_min                   =  -3.7982039538854E-08
(PID.TID 0000.0001) %MON vort_r_max                   =   5.7486012262490E-08
(PID.TID 0000.0001) %MON vort_a_mean                  =  -1.4007437282668E-04
(PID.TID 0000.0001) %MON vort_a_sd                    =   1.7682742042114E-06
(PID.TID 0000.0001) %MON vort_p_mean                  =  -1.5039772200058E-04
(PID.TID 0000.0001) %MON vort_p_sd                    =   8.7068821050388E-05
(PID.TID 0000.0001) %MON surfExpan_theta_mean         =  -1.0382848230439E-12
(PID.TID 0000.0001) %MON surfExpan_salt_mean          =  -4.1261438868359E-13
(PID.TID 0000.0001) // =======================================================
(PID.TID 0000.0001) // End MONITOR dynamic field statistics
(PID.TID 0000.0001) // =======================================================
(PID.TID 0000.0001) %CHECKPOINT        20 ckptA
(PID.TID 0000.0001)   Seconds in section "ALL                    [THE_MODEL_MAIN]":
(PID.TID 0000.0001)           User time:   47.132834190968424
(PID.TID 0000.0001)         System time:  0.10698400251567364
(PID.TID 0000.0001)     Wall clock time:   47.373928070068359
(PID.TID 0000.0001)          No. starts:           1
(PID.TID 0000.0001)           No. stops:           1
(PID.TID 0000.0001)   Seconds in section "INITIALISE_FIXED       [THE_MODEL_MAIN]":
(PID.TID 0000.0001)           User time:  0.26395999873057008
(PID.TID 0000.0001)         System time:  2.59959995746612549E-002
(PID.TID 0000.0001)     Wall clock time:  0.28986191749572754
(PID.TID 0000.0001)          No. starts:           1
(PID.TID 0000.0001)           No. stops:           1
(PID.TID 0000.0001)   Seconds in section "THE_MAIN_LOOP          [THE_MODEL_MAIN]":
(PID.TID 0000.0001)           User time:   46.868874192237854
(PID.TID 0000.0001)         System time:  8.09880029410123825E-002
(PID.TID 0000.0001)     Wall clock time:   47.084027051925659
(PID.TID 0000.0001)          No. starts:           1
(PID.TID 0000.0001)           No. stops:           1
(PID.TID 0000.0001)   Seconds in section "INITIALISE_VARIA    [THE_MAIN_LOOP]":
(PID.TID 0000.0001)           User time:  0.57891201972961426
(PID.TID 0000.0001)         System time:  1.99969988316297531E-002
(PID.TID 0000.0001)     Wall clock time:  0.63041210174560547
(PID.TID 0000.0001)          No. starts:           1
(PID.TID 0000.0001)           No. stops:           1
(PID.TID 0000.0001)   Seconds in section "MAIN LOOP           [THE_MAIN_LOOP]":
(PID.TID 0000.0001)           User time:   46.289962172508240
(PID.TID 0000.0001)         System time:  6.09910041093826294E-002
(PID.TID 0000.0001)     Wall clock time:   46.453585863113403
(PID.TID 0000.0001)          No. starts:           1
(PID.TID 0000.0001)           No. stops:           1
(PID.TID 0000.0001)   Seconds in section "MAIN_DO_LOOP        [THE_MAIN_LOOP]":
(PID.TID 0000.0001)           User time:   46.289962172508240
(PID.TID 0000.0001)         System time:  6.09910041093826294E-002
(PID.TID 0000.0001)     Wall clock time:   46.453403949737549
(PID.TID 0000.0001)          No. starts:          20
(PID.TID 0000.0001)           No. stops:          20
(PID.TID 0000.0001)   Seconds in section "FORWARD_STEP        [MAIN_DO_LOOP]":
(PID.TID 0000.0001)           User time:   46.289962172508240
(PID.TID 0000.0001)         System time:  6.09910041093826294E-002
(PID.TID 0000.0001)     Wall clock time:   46.453038692474365
(PID.TID 0000.0001)          No. starts:          20
(PID.TID 0000.0001)           No. stops:          20
(PID.TID 0000.0001)   Seconds in section "LOAD_FIELDS_DRIVER  [FORWARD_STEP]":
(PID.TID 0000.0001)           User time:   0.0000000000000000
(PID.TID 0000.0001)         System time:   0.0000000000000000
(PID.TID 0000.0001)     Wall clock time:  5.47170639038085938E-004
(PID.TID 0000.0001)          No. starts:          20
(PID.TID 0000.0001)           No. stops:          20
(PID.TID 0000.0001)   Seconds in section "EXTERNAL_FLDS_LOAD [LOAD_FLDS_DRIVER]":
(PID.TID 0000.0001)           User time:   0.0000000000000000
(PID.TID 0000.0001)         System time:   0.0000000000000000
(PID.TID 0000.0001)     Wall clock time:  1.82628631591796875E-004
(PID.TID 0000.0001)          No. starts:          20
(PID.TID 0000.0001)           No. stops:          20
(PID.TID 0000.0001)   Seconds in section "DO_ATMOSPHERIC_PHYS [FORWARD_STEP]":
(PID.TID 0000.0001)           User time:   0.0000000000000000
(PID.TID 0000.0001)         System time:   0.0000000000000000
(PID.TID 0000.0001)     Wall clock time:  1.86204910278320313E-004
(PID.TID 0000.0001)          No. starts:          20
(PID.TID 0000.0001)           No. stops:          20
(PID.TID 0000.0001)   Seconds in section "DO_OCEANIC_PHYS     [FORWARD_STEP]":
(PID.TID 0000.0001)           User time:  0.85886043310165405
(PID.TID 0000.0001)         System time:   0.0000000000000000
(PID.TID 0000.0001)     Wall clock time:  0.85587000846862793
(PID.TID 0000.0001)          No. starts:          20
(PID.TID 0000.0001)           No. stops:          20
(PID.TID 0000.0001)   Seconds in section "SHELFICE_THERMODYNAMICS [DO_OCEANIC_PHYS]":
(PID.TID 0000.0001)           User time:  0.11297971010208130
(PID.TID 0000.0001)         System time:   0.0000000000000000
(PID.TID 0000.0001)     Wall clock time:  0.10965991020202637
(PID.TID 0000.0001)          No. starts:          20
(PID.TID 0000.0001)           No. stops:          20
(PID.TID 0000.0001)   Seconds in section "THERMODYNAMICS      [FORWARD_STEP]":
(PID.TID 0000.0001)           User time:   9.1056231856346130
(PID.TID 0000.0001)         System time:  6.99900090694427490E-003
(PID.TID 0000.0001)     Wall clock time:   9.1360447406768799
(PID.TID 0000.0001)          No. starts:          20
(PID.TID 0000.0001)           No. stops:          20
(PID.TID 0000.0001)   Seconds in section "DYNAMICS            [FORWARD_STEP]":
(PID.TID 0000.0001)           User time:   16.893429040908813
(PID.TID 0000.0001)         System time:  1.69970020651817322E-002
(PID.TID 0000.0001)     Wall clock time:   16.945909023284912
(PID.TID 0000.0001)          No. starts:          20
(PID.TID 0000.0001)           No. stops:          20
(PID.TID 0000.0001)   Seconds in section "UPDATE_SURF_DR      [FORWARD_STEP]":
(PID.TID 0000.0001)           User time:  0.24196267127990723
(PID.TID 0000.0001)         System time:   0.0000000000000000
(PID.TID 0000.0001)     Wall clock time:  0.24571371078491211
(PID.TID 0000.0001)          No. starts:          20
(PID.TID 0000.0001)           No. stops:          20
(PID.TID 0000.0001)   Seconds in section "SOLVE_FOR_PRESSURE  [FORWARD_STEP]":
(PID.TID 0000.0001)           User time:   9.6705346107482910
(PID.TID 0000.0001)         System time:   0.0000000000000000
(PID.TID 0000.0001)     Wall clock time:   9.6880545616149902
(PID.TID 0000.0001)          No. starts:          20
(PID.TID 0000.0001)           No. stops:          20
(PID.TID 0000.0001)   Seconds in section "MOM_CORRECTION_STEP [FORWARD_STEP]":
(PID.TID 0000.0001)           User time:  0.74487686157226563
(PID.TID 0000.0001)         System time:   0.0000000000000000
(PID.TID 0000.0001)     Wall clock time:  0.75125956535339355
(PID.TID 0000.0001)          No. starts:          20
(PID.TID 0000.0001)           No. stops:          20
(PID.TID 0000.0001)   Seconds in section "INTEGR_CONTINUITY   [FORWARD_STEP]":
(PID.TID 0000.0001)           User time:   1.0418510437011719
(PID.TID 0000.0001)         System time:   0.0000000000000000
(PID.TID 0000.0001)     Wall clock time:   1.0427649021148682
(PID.TID 0000.0001)          No. starts:          20
(PID.TID 0000.0001)           No. stops:          20
(PID.TID 0000.0001)   Seconds in section "TRC_CORRECTION_STEP [FORWARD_STEP]":
(PID.TID 0000.0001)           User time:   2.0856726169586182
(PID.TID 0000.0001)         System time:  9.99994575977325439E-004
(PID.TID 0000.0001)     Wall clock time:   2.0879023075103760
(PID.TID 0000.0001)          No. starts:          20
(PID.TID 0000.0001)           No. stops:          20
(PID.TID 0000.0001)   Seconds in section "BLOCKING_EXCHANGES  [FORWARD_STEP]":
(PID.TID 0000.0001)           User time:  0.51292634010314941
(PID.TID 0000.0001)         System time:   0.0000000000000000
(PID.TID 0000.0001)     Wall clock time:  0.51672124862670898
(PID.TID 0000.0001)          No. starts:          20
(PID.TID 0000.0001)           No. stops:          20
(PID.TID 0000.0001)   Seconds in section "DO_STATEVARS_TAVE   [FORWARD_STEP]":
(PID.TID 0000.0001)           User time:   0.0000000000000000
(PID.TID 0000.0001)         System time:   0.0000000000000000
(PID.TID 0000.0001)     Wall clock time:  2.00271606445312500E-004
(PID.TID 0000.0001)          No. starts:          20
(PID.TID 0000.0001)           No. stops:          20
(PID.TID 0000.0001)   Seconds in section "MONITOR             [FORWARD_STEP]":
(PID.TID 0000.0001)           User time:   4.9572525024414063
(PID.TID 0000.0001)         System time:  1.69980004429817200E-002
(PID.TID 0000.0001)     Wall clock time:   4.9862504005432129
(PID.TID 0000.0001)          No. starts:          20
(PID.TID 0000.0001)           No. stops:          20
(PID.TID 0000.0001)   Seconds in section "DO_THE_MODEL_IO     [FORWARD_STEP]":
(PID.TID 0000.0001)           User time:  5.79910278320312500E-002
(PID.TID 0000.0001)         System time:  4.99900430440902710E-003
(PID.TID 0000.0001)     Wall clock time:  6.29816055297851563E-002
(PID.TID 0000.0001)          No. starts:          20
(PID.TID 0000.0001)           No. stops:          20
(PID.TID 0000.0001)   Seconds in section "DO_WRITE_PICKUP     [FORWARD_STEP]":
(PID.TID 0000.0001)           User time:  0.11398315429687500
(PID.TID 0000.0001)         System time:  1.39980018138885498E-002
(PID.TID 0000.0001)     Wall clock time:  0.12936472892761230
(PID.TID 0000.0001)          No. starts:          20
(PID.TID 0000.0001)           No. stops:          20
(PID.TID 0000.0001) // ======================================================
(PID.TID 0000.0001) // Tile <-> Tile communication statistics
(PID.TID 0000.0001) // ======================================================
(PID.TID 0000.0001) // o Tile number: 000001
(PID.TID 0000.0001) //         No. X exchanges =              0
(PID.TID 0000.0001) //            Max. X spins =              0
(PID.TID 0000.0001) //            Min. X spins =     1000000000
(PID.TID 0000.0001) //          Total. X spins =              0
(PID.TID 0000.0001) //            Avg. X spins =       0.00E+00
(PID.TID 0000.0001) //         No. Y exchanges =              0
(PID.TID 0000.0001) //            Max. Y spins =              0
(PID.TID 0000.0001) //            Min. Y spins =     1000000000
(PID.TID 0000.0001) //          Total. Y spins =              0
(PID.TID 0000.0001) //            Avg. Y spins =       0.00E+00
(PID.TID 0000.0001) // o Tile number: 000002
(PID.TID 0000.0001) //         No. X exchanges =              0
(PID.TID 0000.0001) //            Max. X spins =              0
(PID.TID 0000.0001) //            Min. X spins =     1000000000
(PID.TID 0000.0001) //          Total. X spins =              0
(PID.TID 0000.0001) //            Avg. X spins =       0.00E+00
(PID.TID 0000.0001) //         No. Y exchanges =              0
(PID.TID 0000.0001) //            Max. Y spins =              0
(PID.TID 0000.0001) //            Min. Y spins =     1000000000
(PID.TID 0000.0001) //          Total. Y spins =              0
(PID.TID 0000.0001) //            Avg. Y spins =       0.00E+00
(PID.TID 0000.0001) // o Tile number: 000003
(PID.TID 0000.0001) //         No. X exchanges =              0
(PID.TID 0000.0001) //            Max. X spins =              0
(PID.TID 0000.0001) //            Min. X spins =     1000000000
(PID.TID 0000.0001) //          Total. X spins =              0
(PID.TID 0000.0001) //            Avg. X spins =       0.00E+00
(PID.TID 0000.0001) //         No. Y exchanges =              0
(PID.TID 0000.0001) //            Max. Y spins =              0
(PID.TID 0000.0001) //            Min. Y spins =     1000000000
(PID.TID 0000.0001) //          Total. Y spins =              0
(PID.TID 0000.0001) //            Avg. Y spins =       0.00E+00
(PID.TID 0000.0001) // o Tile number: 000004
(PID.TID 0000.0001) //         No. X exchanges =              0
(PID.TID 0000.0001) //            Max. X spins =              0
(PID.TID 0000.0001) //            Min. X spins =     1000000000
(PID.TID 0000.0001) //          Total. X spins =              0
(PID.TID 0000.0001) //            Avg. X spins =       0.00E+00
(PID.TID 0000.0001) //         No. Y exchanges =              0
(PID.TID 0000.0001) //            Max. Y spins =              0
(PID.TID 0000.0001) //            Min. Y spins =     1000000000
(PID.TID 0000.0001) //          Total. Y spins =              0
(PID.TID 0000.0001) //            Avg. Y spins =       0.00E+00
(PID.TID 0000.0001) // o Tile number: 000005
(PID.TID 0000.0001) //         No. X exchanges =              0
(PID.TID 0000.0001) //            Max. X spins =              0
(PID.TID 0000.0001) //            Min. X spins =     1000000000
(PID.TID 0000.0001) //          Total. X spins =              0
(PID.TID 0000.0001) //            Avg. X spins =       0.00E+00
(PID.TID 0000.0001) //         No. Y exchanges =              0
(PID.TID 0000.0001) //            Max. Y spins =              0
(PID.TID 0000.0001) //            Min. Y spins =     1000000000
(PID.TID 0000.0001) //          Total. Y spins =              0
(PID.TID 0000.0001) //            Avg. Y spins =       0.00E+00
(PID.TID 0000.0001) // o Tile number: 000006
(PID.TID 0000.0001) //         No. X exchanges =              0
(PID.TID 0000.0001) //            Max. X spins =              0
(PID.TID 0000.0001) //            Min. X spins =     1000000000
(PID.TID 0000.0001) //          Total. X spins =              0
(PID.TID 0000.0001) //            Avg. X spins =       0.00E+00
(PID.TID 0000.0001) //         No. Y exchanges =              0
(PID.TID 0000.0001) //            Max. Y spins =              0
(PID.TID 0000.0001) //            Min. Y spins =     1000000000
(PID.TID 0000.0001) //          Total. Y spins =              0
(PID.TID 0000.0001) //            Avg. Y spins =       0.00E+00
(PID.TID 0000.0001) // o Tile number: 000007
(PID.TID 0000.0001) //         No. X exchanges =              0
(PID.TID 0000.0001) //            Max. X spins =              0
(PID.TID 0000.0001) //            Min. X spins =     1000000000
(PID.TID 0000.0001) //          Total. X spins =              0
(PID.TID 0000.0001) //            Avg. X spins =       0.00E+00
(PID.TID 0000.0001) //         No. Y exchanges =              0
(PID.TID 0000.0001) //            Max. Y spins =              0
(PID.TID 0000.0001) //            Min. Y spins =     1000000000
(PID.TID 0000.0001) //          Total. Y spins =              0
(PID.TID 0000.0001) //            Avg. Y spins =       0.00E+00
(PID.TID 0000.0001) // o Tile number: 000008
(PID.TID 0000.0001) //         No. X exchanges =              0
(PID.TID 0000.0001) //            Max. X spins =              0
(PID.TID 0000.0001) //            Min. X spins =     1000000000
(PID.TID 0000.0001) //          Total. X spins =              0
(PID.TID 0000.0001) //            Avg. X spins =       0.00E+00
(PID.TID 0000.0001) //         No. Y exchanges =              0
(PID.TID 0000.0001) //            Max. Y spins =              0
(PID.TID 0000.0001) //            Min. Y spins =     1000000000
(PID.TID 0000.0001) //          Total. Y spins =              0
(PID.TID 0000.0001) //            Avg. Y spins =       0.00E+00
(PID.TID 0000.0001) // o Thread number: 000001
(PID.TID 0000.0001) //            No. barriers =          29330
(PID.TID 0000.0001) //      Max. barrier spins =              1
(PID.TID 0000.0001) //      Min. barrier spins =              1
(PID.TID 0000.0001) //     Total barrier spins =          29330
(PID.TID 0000.0001) //      Avg. barrier spins =       1.00E+00
PROGRAM MAIN: Execution ended Normally
