(PID.TID 0000.0001) 
(PID.TID 0000.0001) // ======================================================
(PID.TID 0000.0001) //                      MITgcm UV
(PID.TID 0000.0001) //                      =========
(PID.TID 0000.0001) // ======================================================
(PID.TID 0000.0001) // execution environment starting up...
(PID.TID 0000.0001) 
(PID.TID 0000.0001) // MITgcmUV version:  checkpoint62w
(PID.TID 0000.0001) // Build user:        jmc
(PID.TID 0000.0001) // Build host:        baudelaire
(PID.TID 0000.0001) // Build date:        Tue May  3 16:26:33 EDT 2011
(PID.TID 0000.0001) 
(PID.TID 0000.0001) // =======================================================
(PID.TID 0000.0001) // Execution Environment parameter file "eedata"
(PID.TID 0000.0001) // =======================================================
(PID.TID 0000.0001) ># Example "eedata" file
(PID.TID 0000.0001) ># Lines beginning "#" are comments
(PID.TID 0000.0001) ># nTx - No. threads per process in X
(PID.TID 0000.0001) ># nTy - No. threads per process in Y
(PID.TID 0000.0001) > &EEPARMS
(PID.TID 0000.0001) > /
(PID.TID 0000.0001) ># Note: Some systems use & as the
(PID.TID 0000.0001) ># namelist terminator. Other systems
(PID.TID 0000.0001) ># use a / character (as shown here).
(PID.TID 0000.0001) 
(PID.TID 0000.0001) // =======================================================
(PID.TID 0000.0001) // Computational Grid Specification ( see files "SIZE.h" )
(PID.TID 0000.0001) //                                  ( and "eedata"       )
(PID.TID 0000.0001) // =======================================================
(PID.TID 0000.0001)      nPx =    1 ; /* No. processes in X */
(PID.TID 0000.0001)      nPy =    1 ; /* No. processes in Y */
(PID.TID 0000.0001)      nSx =    8 ; /* No. tiles in X per process */
(PID.TID 0000.0001)      nSy =    3 ; /* No. tiles in Y per process */
(PID.TID 0000.0001)      sNx =   25 ; /* Tile size in X */
(PID.TID 0000.0001)      sNy =   15 ; /* Tile size in Y */
(PID.TID 0000.0001)      OLx =    3 ; /* Tile overlap distance in X */
(PID.TID 0000.0001)      OLy =    3 ; /* Tile overlap distance in Y */
(PID.TID 0000.0001)      nTx =    1 ; /* No. threads in X per process */
(PID.TID 0000.0001)      nTy =    1 ; /* No. threads in Y per process */
(PID.TID 0000.0001)       Nr =   25 ; /* No. levels in the vertical   */
(PID.TID 0000.0001)       Nx =  200 ; /* Total domain size in X ( = nPx*nSx*sNx ) */
(PID.TID 0000.0001)       Ny =   45 ; /* Total domain size in Y ( = nPy*nSy*sNy ) */
(PID.TID 0000.0001)   nTiles =   24 ; /* Total no. tiles per process ( = nSx*nSy ) */
(PID.TID 0000.0001)   nProcs =    1 ; /* Total no. processes ( = nPx*nPy ) */
(PID.TID 0000.0001) nThreads =    1 ; /* Total no. threads per process ( = nTx*nTy ) */
(PID.TID 0000.0001) usingMPI =    F ; /* Flag used to control whether MPI is in use */
(PID.TID 0000.0001)                   /*  note: To execute a program with MPI calls */
(PID.TID 0000.0001)                   /*  it must be launched appropriately e.g     */
(PID.TID 0000.0001)                   /*  "mpirun -np 64 ......"                    */
(PID.TID 0000.0001) useCoupler=    F ;/* Flag used to control communications with   */
(PID.TID 0000.0001)                   /*  other model components, through a coupler */
(PID.TID 0000.0001) printMapIncludesZeros=    F ; /* print zeros in Std.Output maps */
(PID.TID 0000.0001) maxLengthPrt1D=   65 /* maxLength of 1D array printed to StdOut */
(PID.TID 0000.0001) 
(PID.TID 0000.0001) // ======================================================
(PID.TID 0000.0001) // Mapping of tiles to threads
(PID.TID 0000.0001) // ======================================================
(PID.TID 0000.0001) // -o- Thread   1, tiles (   1:   8,   1:   3)
(PID.TID 0000.0001) 
(PID.TID 0000.0001) // ======================================================
(PID.TID 0000.0001) // Tile <-> Tile connectvity table
(PID.TID 0000.0001) // ======================================================
(PID.TID 0000.0001) // Tile number: 000001 (process no. = 000001)
(PID.TID 0000.0001) //        WEST: Tile = 000008, Process = 000001, Comm = put
(PID.TID 0000.0001) //                bi = 000008, bj = 000001
(PID.TID 0000.0001) //        EAST: Tile = 000002, Process = 000001, Comm = put
(PID.TID 0000.0001) //                bi = 000002, bj = 000001
(PID.TID 0000.0001) //       SOUTH: Tile = 000017, Process = 000001, Comm = put
(PID.TID 0000.0001) //                bi = 000001, bj = 000003
(PID.TID 0000.0001) //       NORTH: Tile = 000009, Process = 000001, Comm = put
(PID.TID 0000.0001) //                bi = 000001, bj = 000002
(PID.TID 0000.0001) // Tile number: 000002 (process no. = 000001)
(PID.TID 0000.0001) //        WEST: Tile = 000001, Process = 000001, Comm = put
(PID.TID 0000.0001) //                bi = 000001, bj = 000001
(PID.TID 0000.0001) //        EAST: Tile = 000003, Process = 000001, Comm = put
(PID.TID 0000.0001) //                bi = 000003, bj = 000001
(PID.TID 0000.0001) //       SOUTH: Tile = 000018, Process = 000001, Comm = put
(PID.TID 0000.0001) //                bi = 000002, bj = 000003
(PID.TID 0000.0001) //       NORTH: Tile = 000010, Process = 000001, Comm = put
(PID.TID 0000.0001) //                bi = 000002, bj = 000002
(PID.TID 0000.0001) // Tile number: 000003 (process no. = 000001)
(PID.TID 0000.0001) //        WEST: Tile = 000002, Process = 000001, Comm = put
(PID.TID 0000.0001) //                bi = 000002, bj = 000001
(PID.TID 0000.0001) //        EAST: Tile = 000004, Process = 000001, Comm = put
(PID.TID 0000.0001) //                bi = 000004, bj = 000001
(PID.TID 0000.0001) //       SOUTH: Tile = 000019, Process = 000001, Comm = put
(PID.TID 0000.0001) //                bi = 000003, bj = 000003
(PID.TID 0000.0001) //       NORTH: Tile = 000011, Process = 000001, Comm = put
(PID.TID 0000.0001) //                bi = 000003, bj = 000002
(PID.TID 0000.0001) // Tile number: 000004 (process no. = 000001)
(PID.TID 0000.0001) //        WEST: Tile = 000003, Process = 000001, Comm = put
(PID.TID 0000.0001) //                bi = 000003, bj = 000001
(PID.TID 0000.0001) //        EAST: Tile = 000005, Process = 000001, Comm = put
(PID.TID 0000.0001) //                bi = 000005, bj = 000001
(PID.TID 0000.0001) //       SOUTH: Tile = 000020, Process = 000001, Comm = put
(PID.TID 0000.0001) //                bi = 000004, bj = 000003
(PID.TID 0000.0001) //       NORTH: Tile = 000012, Process = 000001, Comm = put
(PID.TID 0000.0001) //                bi = 000004, bj = 000002
(PID.TID 0000.0001) // Tile number: 000005 (process no. = 000001)
(PID.TID 0000.0001) //        WEST: Tile = 000004, Process = 000001, Comm = put
(PID.TID 0000.0001) //                bi = 000004, bj = 000001
(PID.TID 0000.0001) //        EAST: Tile = 000006, Process = 000001, Comm = put
(PID.TID 0000.0001) //                bi = 000006, bj = 000001
(PID.TID 0000.0001) //       SOUTH: Tile = 000021, Process = 000001, Comm = put
(PID.TID 0000.0001) //                bi = 000005, bj = 000003
(PID.TID 0000.0001) //       NORTH: Tile = 000013, Process = 000001, Comm = put
(PID.TID 0000.0001) //                bi = 000005, bj = 000002
(PID.TID 0000.0001) // Tile number: 000006 (process no. = 000001)
(PID.TID 0000.0001) //        WEST: Tile = 000005, Process = 000001, Comm = put
(PID.TID 0000.0001) //                bi = 000005, bj = 000001
(PID.TID 0000.0001) //        EAST: Tile = 000007, Process = 000001, Comm = put
(PID.TID 0000.0001) //                bi = 000007, bj = 000001
(PID.TID 0000.0001) //       SOUTH: Tile = 000022, Process = 000001, Comm = put
(PID.TID 0000.0001) //                bi = 000006, bj = 000003
(PID.TID 0000.0001) //       NORTH: Tile = 000014, Process = 000001, Comm = put
(PID.TID 0000.0001) //                bi = 000006, bj = 000002
(PID.TID 0000.0001) // Tile number: 000007 (process no. = 000001)
(PID.TID 0000.0001) //        WEST: Tile = 000006, Process = 000001, Comm = put
(PID.TID 0000.0001) //                bi = 000006, bj = 000001
(PID.TID 0000.0001) //        EAST: Tile = 000008, Process = 000001, Comm = put
(PID.TID 0000.0001) //                bi = 000008, bj = 000001
(PID.TID 0000.0001) //       SOUTH: Tile = 000023, Process = 000001, Comm = put
(PID.TID 0000.0001) //                bi = 000007, bj = 000003
(PID.TID 0000.0001) //       NORTH: Tile = 000015, Process = 000001, Comm = put
(PID.TID 0000.0001) //                bi = 000007, bj = 000002
(PID.TID 0000.0001) // Tile number: 000008 (process no. = 000001)
(PID.TID 0000.0001) //        WEST: Tile = 000007, Process = 000001, Comm = put
(PID.TID 0000.0001) //                bi = 000007, bj = 000001
(PID.TID 0000.0001) //        EAST: Tile = 000001, Process = 000001, Comm = put
(PID.TID 0000.0001) //                bi = 000001, bj = 000001
(PID.TID 0000.0001) //       SOUTH: Tile = 000024, Process = 000001, Comm = put
(PID.TID 0000.0001) //                bi = 000008, bj = 000003
(PID.TID 0000.0001) //       NORTH: Tile = 000016, Process = 000001, Comm = put
(PID.TID 0000.0001) //                bi = 000008, bj = 000002
(PID.TID 0000.0001) // Tile number: 000009 (process no. = 000001)
(PID.TID 0000.0001) //        WEST: Tile = 000016, Process = 000001, Comm = put
(PID.TID 0000.0001) //                bi = 000008, bj = 000002
(PID.TID 0000.0001) //        EAST: Tile = 000010, Process = 000001, Comm = put
(PID.TID 0000.0001) //                bi = 000002, bj = 000002
(PID.TID 0000.0001) //       SOUTH: Tile = 000001, Process = 000001, Comm = put
(PID.TID 0000.0001) //                bi = 000001, bj = 000001
(PID.TID 0000.0001) //       NORTH: Tile = 000017, Process = 000001, Comm = put
(PID.TID 0000.0001) //                bi = 000001, bj = 000003
(PID.TID 0000.0001) // Tile number: 000010 (process no. = 000001)
(PID.TID 0000.0001) //        WEST: Tile = 000009, Process = 000001, Comm = put
(PID.TID 0000.0001) //                bi = 000001, bj = 000002
(PID.TID 0000.0001) //        EAST: Tile = 000011, Process = 000001, Comm = put
(PID.TID 0000.0001) //                bi = 000003, bj = 000002
(PID.TID 0000.0001) //       SOUTH: Tile = 000002, Process = 000001, Comm = put
(PID.TID 0000.0001) //                bi = 000002, bj = 000001
(PID.TID 0000.0001) //       NORTH: Tile = 000018, Process = 000001, Comm = put
(PID.TID 0000.0001) //                bi = 000002, bj = 000003
(PID.TID 0000.0001) // Tile number: 000011 (process no. = 000001)
(PID.TID 0000.0001) //        WEST: Tile = 000010, Process = 000001, Comm = put
(PID.TID 0000.0001) //                bi = 000002, bj = 000002
(PID.TID 0000.0001) //        EAST: Tile = 000012, Process = 000001, Comm = put
(PID.TID 0000.0001) //                bi = 000004, bj = 000002
(PID.TID 0000.0001) //       SOUTH: Tile = 000003, Process = 000001, Comm = put
(PID.TID 0000.0001) //                bi = 000003, bj = 000001
(PID.TID 0000.0001) //       NORTH: Tile = 000019, Process = 000001, Comm = put
(PID.TID 0000.0001) //                bi = 000003, bj = 000003
(PID.TID 0000.0001) // Tile number: 000012 (process no. = 000001)
(PID.TID 0000.0001) //        WEST: Tile = 000011, Process = 000001, Comm = put
(PID.TID 0000.0001) //                bi = 000003, bj = 000002
(PID.TID 0000.0001) //        EAST: Tile = 000013, Process = 000001, Comm = put
(PID.TID 0000.0001) //                bi = 000005, bj = 000002
(PID.TID 0000.0001) //       SOUTH: Tile = 000004, Process = 000001, Comm = put
(PID.TID 0000.0001) //                bi = 000004, bj = 000001
(PID.TID 0000.0001) //       NORTH: Tile = 000020, Process = 000001, Comm = put
(PID.TID 0000.0001) //                bi = 000004, bj = 000003
(PID.TID 0000.0001) // Tile number: 000013 (process no. = 000001)
(PID.TID 0000.0001) //        WEST: Tile = 000012, Process = 000001, Comm = put
(PID.TID 0000.0001) //                bi = 000004, bj = 000002
(PID.TID 0000.0001) //        EAST: Tile = 000014, Process = 000001, Comm = put
(PID.TID 0000.0001) //                bi = 000006, bj = 000002
(PID.TID 0000.0001) //       SOUTH: Tile = 000005, Process = 000001, Comm = put
(PID.TID 0000.0001) //                bi = 000005, bj = 000001
(PID.TID 0000.0001) //       NORTH: Tile = 000021, Process = 000001, Comm = put
(PID.TID 0000.0001) //                bi = 000005, bj = 000003
(PID.TID 0000.0001) // Tile number: 000014 (process no. = 000001)
(PID.TID 0000.0001) //        WEST: Tile = 000013, Process = 000001, Comm = put
(PID.TID 0000.0001) //                bi = 000005, bj = 000002
(PID.TID 0000.0001) //        EAST: Tile = 000015, Process = 000001, Comm = put
(PID.TID 0000.0001) //                bi = 000007, bj = 000002
(PID.TID 0000.0001) //       SOUTH: Tile = 000006, Process = 000001, Comm = put
(PID.TID 0000.0001) //                bi = 000006, bj = 000001
(PID.TID 0000.0001) //       NORTH: Tile = 000022, Process = 000001, Comm = put
(PID.TID 0000.0001) //                bi = 000006, bj = 000003
(PID.TID 0000.0001) // Tile number: 000015 (process no. = 000001)
(PID.TID 0000.0001) //        WEST: Tile = 000014, Process = 000001, Comm = put
(PID.TID 0000.0001) //                bi = 000006, bj = 000002
(PID.TID 0000.0001) //        EAST: Tile = 000016, Process = 000001, Comm = put
(PID.TID 0000.0001) //                bi = 000008, bj = 000002
(PID.TID 0000.0001) //       SOUTH: Tile = 000007, Process = 000001, Comm = put
(PID.TID 0000.0001) //                bi = 000007, bj = 000001
(PID.TID 0000.0001) //       NORTH: Tile = 000023, Process = 000001, Comm = put
(PID.TID 0000.0001) //                bi = 000007, bj = 000003
(PID.TID 0000.0001) // Tile number: 000016 (process no. = 000001)
(PID.TID 0000.0001) //        WEST: Tile = 000015, Process = 000001, Comm = put
(PID.TID 0000.0001) //                bi = 000007, bj = 000002
(PID.TID 0000.0001) //        EAST: Tile = 000009, Process = 000001, Comm = put
(PID.TID 0000.0001) //                bi = 000001, bj = 000002
(PID.TID 0000.0001) //       SOUTH: Tile = 000008, Process = 000001, Comm = put
(PID.TID 0000.0001) //                bi = 000008, bj = 000001
(PID.TID 0000.0001) //       NORTH: Tile = 000024, Process = 000001, Comm = put
(PID.TID 0000.0001) //                bi = 000008, bj = 000003
(PID.TID 0000.0001) // Tile number: 000017 (process no. = 000001)
(PID.TID 0000.0001) //        WEST: Tile = 000024, Process = 000001, Comm = put
(PID.TID 0000.0001) //                bi = 000008, bj = 000003
(PID.TID 0000.0001) //        EAST: Tile = 000018, Process = 000001, Comm = put
(PID.TID 0000.0001) //                bi = 000002, bj = 000003
(PID.TID 0000.0001) //       SOUTH: Tile = 000009, Process = 000001, Comm = put
(PID.TID 0000.0001) //                bi = 000001, bj = 000002
(PID.TID 0000.0001) //       NORTH: Tile = 000001, Process = 000001, Comm = put
(PID.TID 0000.0001) //                bi = 000001, bj = 000001
(PID.TID 0000.0001) // Tile number: 000018 (process no. = 000001)
(PID.TID 0000.0001) //        WEST: Tile = 000017, Process = 000001, Comm = put
(PID.TID 0000.0001) //                bi = 000001, bj = 000003
(PID.TID 0000.0001) //        EAST: Tile = 000019, Process = 000001, Comm = put
(PID.TID 0000.0001) //                bi = 000003, bj = 000003
(PID.TID 0000.0001) //       SOUTH: Tile = 000010, Process = 000001, Comm = put
(PID.TID 0000.0001) //                bi = 000002, bj = 000002
(PID.TID 0000.0001) //       NORTH: Tile = 000002, Process = 000001, Comm = put
(PID.TID 0000.0001) //                bi = 000002, bj = 000001
(PID.TID 0000.0001) // Tile number: 000019 (process no. = 000001)
(PID.TID 0000.0001) //        WEST: Tile = 000018, Process = 000001, Comm = put
(PID.TID 0000.0001) //                bi = 000002, bj = 000003
(PID.TID 0000.0001) //        EAST: Tile = 000020, Process = 000001, Comm = put
(PID.TID 0000.0001) //                bi = 000004, bj = 000003
(PID.TID 0000.0001) //       SOUTH: Tile = 000011, Process = 000001, Comm = put
(PID.TID 0000.0001) //                bi = 000003, bj = 000002
(PID.TID 0000.0001) //       NORTH: Tile = 000003, Process = 000001, Comm = put
(PID.TID 0000.0001) //                bi = 000003, bj = 000001
(PID.TID 0000.0001) // Tile number: 000020 (process no. = 000001)
(PID.TID 0000.0001) //        WEST: Tile = 000019, Process = 000001, Comm = put
(PID.TID 0000.0001) //                bi = 000003, bj = 000003
(PID.TID 0000.0001) //        EAST: Tile = 000021, Process = 000001, Comm = put
(PID.TID 0000.0001) //                bi = 000005, bj = 000003
(PID.TID 0000.0001) //       SOUTH: Tile = 000012, Process = 000001, Comm = put
(PID.TID 0000.0001) //                bi = 000004, bj = 000002
(PID.TID 0000.0001) //       NORTH: Tile = 000004, Process = 000001, Comm = put
(PID.TID 0000.0001) //                bi = 000004, bj = 000001
(PID.TID 0000.0001) // Tile number: 000021 (process no. = 000001)
(PID.TID 0000.0001) //        WEST: Tile = 000020, Process = 000001, Comm = put
(PID.TID 0000.0001) //                bi = 000004, bj = 000003
(PID.TID 0000.0001) //        EAST: Tile = 000022, Process = 000001, Comm = put
(PID.TID 0000.0001) //                bi = 000006, bj = 000003
(PID.TID 0000.0001) //       SOUTH: Tile = 000013, Process = 000001, Comm = put
(PID.TID 0000.0001) //                bi = 000005, bj = 000002
(PID.TID 0000.0001) //       NORTH: Tile = 000005, Process = 000001, Comm = put
(PID.TID 0000.0001) //                bi = 000005, bj = 000001
(PID.TID 0000.0001) // Tile number: 000022 (process no. = 000001)
(PID.TID 0000.0001) //        WEST: Tile = 000021, Process = 000001, Comm = put
(PID.TID 0000.0001) //                bi = 000005, bj = 000003
(PID.TID 0000.0001) //        EAST: Tile = 000023, Process = 000001, Comm = put
(PID.TID 0000.0001) //                bi = 000007, bj = 000003
(PID.TID 0000.0001) //       SOUTH: Tile = 000014, Process = 000001, Comm = put
(PID.TID 0000.0001) //                bi = 000006, bj = 000002
(PID.TID 0000.0001) //       NORTH: Tile = 000006, Process = 000001, Comm = put
(PID.TID 0000.0001) //                bi = 000006, bj = 000001
(PID.TID 0000.0001) // Tile number: 000023 (process no. = 000001)
(PID.TID 0000.0001) //        WEST: Tile = 000022, Process = 000001, Comm = put
(PID.TID 0000.0001) //                bi = 000006, bj = 000003
(PID.TID 0000.0001) //        EAST: Tile = 000024, Process = 000001, Comm = put
(PID.TID 0000.0001) //                bi = 000008, bj = 000003
(PID.TID 0000.0001) //       SOUTH: Tile = 000015, Process = 000001, Comm = put
(PID.TID 0000.0001) //                bi = 000007, bj = 000002
(PID.TID 0000.0001) //       NORTH: Tile = 000007, Process = 000001, Comm = put
(PID.TID 0000.0001) //                bi = 000007, bj = 000001
(PID.TID 0000.0001) // Tile number: 000024 (process no. = 000001)
(PID.TID 0000.0001) //        WEST: Tile = 000023, Process = 000001, Comm = put
(PID.TID 0000.0001) //                bi = 000007, bj = 000003
(PID.TID 0000.0001) //        EAST: Tile = 000017, Process = 000001, Comm = put
(PID.TID 0000.0001) //                bi = 000001, bj = 000003
(PID.TID 0000.0001) //       SOUTH: Tile = 000016, Process = 000001, Comm = put
(PID.TID 0000.0001) //                bi = 000008, bj = 000002
(PID.TID 0000.0001) //       NORTH: Tile = 000008, Process = 000001, Comm = put
(PID.TID 0000.0001) //                bi = 000008, bj = 000001
(PID.TID 0000.0001) 
(PID.TID 0000.0001) DEBUG_MSG: ENTERED S/R THE_MODEL_MAIN
(PID.TID 0000.0001) DEBUG_MSG: CALLING S/R INITIALISE_FIXED
(PID.TID 0000.0001)  INI_PARMS: opening model parameter file "data"
(PID.TID 0000.0001)  OPEN_COPY_DATA_FILE: opening file data
(PID.TID 0000.0001) // =======================================================
(PID.TID 0000.0001) // Parameter file "data"
(PID.TID 0000.0001) // =======================================================
(PID.TID 0000.0001) ># ====================
(PID.TID 0000.0001) ># | Model parameters |
(PID.TID 0000.0001) ># ====================
(PID.TID 0000.0001) >#
(PID.TID 0000.0001) ># Continuous equation parameters
(PID.TID 0000.0001) > &PARM01
(PID.TID 0000.0001) > Tref = -0.194175, -0.582524, -0.970874, -1.35922, -1.74757,
(PID.TID 0000.0001) >        -2.13592,  -2.52427,  -2.91262,  -3.30097, -3.68932,
(PID.TID 0000.0001) >        -4.07767,  -4.46602,  -4.85437,  -5.24272, -5.63107,
(PID.TID 0000.0001) >        -6.01942,  -6.40777,  -6.79612,  -7.18447, -7.57282,
(PID.TID 0000.0001) >        -7.96117,  -8.34951,  -8.73786,  -9.12621, -9.51456,
(PID.TID 0000.0001) > sRef= 25*1.,
(PID.TID 0000.0001) > viscAr=5.E-1,
(PID.TID 0000.0001) > viscAh=0.0E0,
(PID.TID 0000.0001) > no_slip_sides=.TRUE.,
(PID.TID 0000.0001) > no_slip_bottom=.TRUE.,
(PID.TID 0000.0001) >#- a trick to recover old version of side-drag:
(PID.TID 0000.0001) >#sideDragFactor=0.,
(PID.TID 0000.0001) > bottomDragQuadratic=2.E-3,
(PID.TID 0000.0001) > viscA4=0.E12,
(PID.TID 0000.0001) > viscC4Leith=1.458198138065,
(PID.TID 0000.0001) > useAreaViscLength=.TRUE.,
(PID.TID 0000.0001) > diffKhT=0.E0,
(PID.TID 0000.0001) > diffKrT=0.E-2,
(PID.TID 0000.0001) > diffKhS=0.E0,
(PID.TID 0000.0001) > diffKrS=0.E-2,
(PID.TID 0000.0001) > f0=1.0e-4,
(PID.TID 0000.0001) > beta=0.E-11,
(PID.TID 0000.0001) > tAlpha=2.E-4,
(PID.TID 0000.0001) > sBeta =0.E-4,
(PID.TID 0000.0001) > gravity=9.81,
(PID.TID 0000.0001) > rhonil=1030.0,
(PID.TID 0000.0001) > rigidLid=.FALSE.,
(PID.TID 0000.0001) > implicitFreeSurface=.TRUE.,
(PID.TID 0000.0001) > eosType='LINEAR',
(PID.TID 0000.0001) > hFacMin=0.2,
(PID.TID 0000.0001) >#nonHydrostatic=.TRUE.,
(PID.TID 0000.0001) > vectorInvariantMomentum=.TRUE.,
(PID.TID 0000.0001) > staggerTimeStep=.TRUE.,
(PID.TID 0000.0001) > tempAdvScheme=77,
(PID.TID 0000.0001) > saltAdvScheme=77,
(PID.TID 0000.0001) > readBinaryPrec=64,
(PID.TID 0000.0001) > writeBinaryPrec=64,
(PID.TID 0000.0001) > writeStatePrec=64,
(PID.TID 0000.0001) >#- not safe to use globalFiles in multi-processors runs
(PID.TID 0000.0001) >#globalFiles=.TRUE.,
(PID.TID 0000.0001) > /
(PID.TID 0000.0001) >
(PID.TID 0000.0001) ># Elliptic solver parameters
(PID.TID 0000.0001) > &PARM02
(PID.TID 0000.0001) > cg2dMaxIters=1000,
(PID.TID 0000.0001) > cg2dTargetResidual=1.E-11,
(PID.TID 0000.0001) > cg3dMaxIters=10,
(PID.TID 0000.0001) > cg3dTargetResidual=1.E-13,
(PID.TID 0000.0001) > /
(PID.TID 0000.0001) >
(PID.TID 0000.0001) ># Time stepping parameters
(PID.TID 0000.0001) > &PARM03
(PID.TID 0000.0001) > nIter0=0,
(PID.TID 0000.0001) >#nTimeSteps=12000,
(PID.TID 0000.0001) > nTimeSteps=20,
(PID.TID 0000.0001) > deltaT=300.,
(PID.TID 0000.0001) > abEps=0.1,
(PID.TID 0000.0001) > pChkptFreq=0.0,
(PID.TID 0000.0001) > chkptFreq=100000.0,
(PID.TID 0000.0001) > dumpFreq=30000.,
(PID.TID 0000.0001) >#cAdjFreq=30.,
(PID.TID 0000.0001) >#monitorFreq=6000.,
(PID.TID 0000.0001) > monitorFreq=300.,
(PID.TID 0000.0001) > monitorSelect=2,
(PID.TID 0000.0001) > /
(PID.TID 0000.0001) >
(PID.TID 0000.0001) ># Gridding parameters
(PID.TID 0000.0001) > &PARM04
(PID.TID 0000.0001) > usingCartesianGrid=.TRUE.,
(PID.TID 0000.0001) ># delXfile='delXvar',
(PID.TID 0000.0001) > delX=200*10000.0,
(PID.TID 0000.0001) > delYfile='delYvar',
(PID.TID 0000.0001) > delR = 25*144.0,
(PID.TID 0000.0001) > /
(PID.TID 0000.0001) >
(PID.TID 0000.0001) ># Input datasets
(PID.TID 0000.0001) > &PARM05
(PID.TID 0000.0001) > hydrogThetaFile='T.init',
(PID.TID 0000.0001) > bathyFile='topog.slope',
(PID.TID 0000.0001) > /
(PID.TID 0000.0001) 
(PID.TID 0000.0001)  INI_PARMS ; starts to read PARM01
(PID.TID 0000.0001)  INI_PARMS ; read PARM01 : OK
(PID.TID 0000.0001)  INI_PARMS ; starts to read PARM02
(PID.TID 0000.0001)  INI_PARMS ; read PARM02 : OK
(PID.TID 0000.0001)  INI_PARMS ; starts to read PARM03
(PID.TID 0000.0001)  INI_PARMS ; read PARM03 : OK
(PID.TID 0000.0001)  INI_PARMS ; starts to read PARM04
(PID.TID 0000.0001)  INI_PARMS ; read PARM04 : OK
(PID.TID 0000.0001)  INI_PARMS ; starts to read PARM05
(PID.TID 0000.0001)  INI_PARMS ; read PARM05 : OK
(PID.TID 0000.0001)  INI_PARMS: finished reading file "data"
(PID.TID 0000.0001)  PACKAGES_BOOT: opening data.pkg
(PID.TID 0000.0001)  OPEN_COPY_DATA_FILE: opening file data.pkg
(PID.TID 0000.0001) // =======================================================
(PID.TID 0000.0001) // Parameter file "data.pkg"
(PID.TID 0000.0001) // =======================================================
(PID.TID 0000.0001) ># Packages
(PID.TID 0000.0001) > &PACKAGES
(PID.TID 0000.0001) > useOBCS=.TRUE.,
(PID.TID 0000.0001) > useDiagnostics=.TRUE.,
(PID.TID 0000.0001) > /
(PID.TID 0000.0001) 
(PID.TID 0000.0001)  PACKAGES_BOOT: finished reading data.pkg
(PID.TID 0000.0001)  OBCS_READPARMS: opening data.obcs
(PID.TID 0000.0001)  OPEN_COPY_DATA_FILE: opening file data.obcs
(PID.TID 0000.0001) // =======================================================
(PID.TID 0000.0001) // Parameter file "data.obcs"
(PID.TID 0000.0001) // =======================================================
(PID.TID 0000.0001) ># Open-boundaries
(PID.TID 0000.0001) > &OBCS_PARM01
(PID.TID 0000.0001) ># OB_Ieast=30*-1,
(PID.TID 0000.0001) > OB_Iwest=45*1,
(PID.TID 0000.0001) > OB_Jnorth=200*-1,
(PID.TID 0000.0001) ># OB_Jsouth=100*1
(PID.TID 0000.0001) ># useOrlanskiEast=.TRUE.,
(PID.TID 0000.0001) > useOrlanskiWest=.TRUE.,
(PID.TID 0000.0001) > useOrlanskiNorth=.FALSE.,
(PID.TID 0000.0001) ># useOrlanskiSouth=.TRUE.,
(PID.TID 0000.0001) > useOBCSbalance=.TRUE.,
(PID.TID 0000.0001) > OBCS_balanceFacW= 1.,
(PID.TID 0000.0001) > OBCS_balanceFacN= 0.,
(PID.TID 0000.0001) > OBCS_monitorFreq=3000.,
(PID.TID 0000.0001) > /
(PID.TID 0000.0001) >
(PID.TID 0000.0001) > &OBCS_PARM02
(PID.TID 0000.0001) > CMAX=0.5,
(PID.TID 0000.0001) ># CMAX=2.0,
(PID.TID 0000.0001) > cvelTimeScale=10000.,
(PID.TID 0000.0001) ># CFIX=0.2,
(PID.TID 0000.0001) > useFixedCEast=.FALSE.,
(PID.TID 0000.0001) > useFixedCWest=.FALSE.,
(PID.TID 0000.0001) > /
(PID.TID 0000.0001) 
(PID.TID 0000.0001)  OBCS_READPARMS: finished reading data.obcs
(PID.TID 0000.0001)  Northern OB global indices : OB_Jnorth =
(PID.TID 0000.0001)   200 @       45                            /* I =  1:200 */
(PID.TID 0000.0001)  Southern OB global indices : OB_Jsouth =
(PID.TID 0000.0001)   200 @        0                            /* I =  1:200 */
(PID.TID 0000.0001)  Eastern  OB global indices : OB_Ieast =
(PID.TID 0000.0001)    45 @        0                            /* J =  1: 45 */
(PID.TID 0000.0001)  Western  OB global indices : OB_Iwest =
(PID.TID 0000.0001)    45 @        1                            /* J =  1: 45 */
(PID.TID 0000.0001) 
(PID.TID 0000.0001)  DIAGNOSTICS_READPARMS: opening data.diagnostics
(PID.TID 0000.0001)  OPEN_COPY_DATA_FILE: opening file data.diagnostics
(PID.TID 0000.0001) // =======================================================
(PID.TID 0000.0001) // Parameter file "data.diagnostics"
(PID.TID 0000.0001) // =======================================================
(PID.TID 0000.0001) ># Diagnostic Package Choices
(PID.TID 0000.0001) >#--------------------
(PID.TID 0000.0001) >#  dumpAtLast (logical): always write output at the end of simulation (default=F)
(PID.TID 0000.0001) >#  diag_mnc   (logical): write to NetCDF files (default=useMNC)
(PID.TID 0000.0001) >#--for each output-stream:
(PID.TID 0000.0001) >#  fileName(n) : prefix of the output file name (max 80c long) for outp.stream n
(PID.TID 0000.0001) >#  frequency(n):< 0 : write snap-shot output every |frequency| seconds
(PID.TID 0000.0001) >#               > 0 : write time-average output every frequency seconds
(PID.TID 0000.0001) >#  timePhase(n)     : write at time = timePhase + multiple of |frequency|
(PID.TID 0000.0001) >#    averagingFreq  : frequency (in s) for periodic averaging interval
(PID.TID 0000.0001) >#    averagingPhase : phase     (in s) for periodic averaging interval
(PID.TID 0000.0001) >#    repeatCycle    : number of averaging intervals in 1 cycle
(PID.TID 0000.0001) >#  levels(:,n) : list of levels to write to file (Notes: declared as REAL)
(PID.TID 0000.0001) >#                when this entry is missing, select all common levels of this list
(PID.TID 0000.0001) >#  fields(:,n) : list of selected diagnostics fields (8.c) in outp.stream n
(PID.TID 0000.0001) >#                (see "available_diagnostics.log" file for the full list of diags)
(PID.TID 0000.0001) >#  missing_value(n) : missing value for real-type fields in output file "n"
(PID.TID 0000.0001) >#  fileFlags(n)     : specific code (8c string) for output file "n"
(PID.TID 0000.0001) >#--------------------
(PID.TID 0000.0001) > &DIAGNOSTICS_LIST
(PID.TID 0000.0001) >  fields(1,1)  = 'VISCA4D ',
(PID.TID 0000.0001) ># Omit level() to diagnose ALL levels ; otherwise list individual levels here
(PID.TID 0000.0001) >#  levels(1,1) = 1.,3.,5.,
(PID.TID 0000.0001) >   fileName(1) = 'visc',
(PID.TID 0000.0001) >  frequency(1) = 3000.,
(PID.TID 0000.0001) > /
(PID.TID 0000.0001) >
(PID.TID 0000.0001) >#--------------------
(PID.TID 0000.0001) ># Parameter for Diagnostics of per level statistics:
(PID.TID 0000.0001) >#--------------------
(PID.TID 0000.0001) >#  diagSt_mnc (logical): write stat-diags to NetCDF files (default=diag_mnc)
(PID.TID 0000.0001) >#  diagSt_regMaskFile : file containing the region-mask to read-in
(PID.TID 0000.0001) >#  nSetRegMskFile   : number of region-mask sets within the region-mask file
(PID.TID 0000.0001) >#  set_regMask(i)   : region-mask set-index that identifies the region "i"
(PID.TID 0000.0001) >#  val_regMask(i)   : region "i" identifier value in the region mask
(PID.TID 0000.0001) >#--for each output-stream:
(PID.TID 0000.0001) >#  stat_fName(n) : prefix of the output file name (max 80c long) for outp.stream n
(PID.TID 0000.0001) >#  stat_freq(n):< 0 : write snap-shot output every |stat_freq| seconds
(PID.TID 0000.0001) >#               > 0 : write time-average output every stat_freq seconds
(PID.TID 0000.0001) >#  stat_phase(n)    : write at time = stat_phase + multiple of |stat_freq|
(PID.TID 0000.0001) >#  stat_region(:,n) : list of "regions" (default: 1 region only=global)
(PID.TID 0000.0001) >#  stat_fields(:,n) : list of selected diagnostics fields (8.c) in outp.stream n
(PID.TID 0000.0001) >#                (see "available_diagnostics.log" file for the full list of diags)
(PID.TID 0000.0001) >#--------------------
(PID.TID 0000.0001) > &DIAG_STATIS_PARMS
(PID.TID 0000.0001) >#- an example just to check the agreement with MONITOR output:
(PID.TID 0000.0001) >#stat_fields(1:5,1)  = 'ETAN    ','UVEL    ','VVEL    ','WVEL    ', 'THETA   ',
(PID.TID 0000.0001) ># stat_fName(1) = 'dynStDiag',
(PID.TID 0000.0001) >#  stat_freq(1) = -864000.,
(PID.TID 0000.0001) ># stat_phase(1) = 0.,
(PID.TID 0000.0001) > /
(PID.TID 0000.0001) >
(PID.TID 0000.0001) 
(PID.TID 0000.0001) S/R DIAGNOSTICS_READPARMS, read namelist "diagnostics_list": start
(PID.TID 0000.0001) S/R DIAGNOSTICS_READPARMS, read namelist "diagnostics_list": OK
(PID.TID 0000.0001) S/R DIAGNOSTICS_READPARMS, read namelist "DIAG_STATIS_PARMS": start
(PID.TID 0000.0001) S/R DIAGNOSTICS_READPARMS, read namelist "DIAG_STATIS_PARMS": OK
(PID.TID 0000.0001) -----------------------------------------------------
(PID.TID 0000.0001)  DIAGNOSTICS_READPARMS: active diagnostics summary:
(PID.TID 0000.0001) -----------------------------------------------------
(PID.TID 0000.0001) Creating Output Stream: visc
(PID.TID 0000.0001) Output Frequency:       3000.000000 ; Phase:           0.000000
(PID.TID 0000.0001)  Averaging Freq.:       3000.000000 , Phase:           0.000000 , Cycle:   1
(PID.TID 0000.0001)  missing value:  1.234567000000E+05 ; for integers:   123456789
(PID.TID 0000.0001)  Levels:    will be set later
(PID.TID 0000.0001)  Fields:    VISCA4D
(PID.TID 0000.0001) -----------------------------------------------------
(PID.TID 0000.0001)  DIAGNOSTICS_READPARMS: statistics diags. summary:
(PID.TID 0000.0001) -----------------------------------------------------
(PID.TID 0000.0001) 
(PID.TID 0000.0001) SET_PARMS: done
(PID.TID 0000.0001) S/R LOAD_GRID_SPACING: delY loaded from file: delYvar
(PID.TID 0000.0001) Enter INI_VERTICAL_GRID: setInterFDr=    T ; setCenterDr=    F
(PID.TID 0000.0001) %MON XC_max                       =   1.9950000000000E+06
(PID.TID 0000.0001) %MON XC_min                       =   5.0000000000000E+03
(PID.TID 0000.0001) %MON XC_mean                      =   1.0000000000000E+06
(PID.TID 0000.0001) %MON XC_sd                        =   5.7734305226615E+05
(PID.TID 0000.0001) %MON XG_max                       =   1.9900000000000E+06
(PID.TID 0000.0001) %MON XG_min                       =   0.0000000000000E+00
(PID.TID 0000.0001) %MON XG_mean                      =   9.9500000000000E+05
(PID.TID 0000.0001) %MON XG_sd                        =   5.7734305226615E+05
(PID.TID 0000.0001) %MON DXC_max                      =   1.0000000000000E+04
(PID.TID 0000.0001) %MON DXC_min                      =   1.0000000000000E+04
(PID.TID 0000.0001) %MON DXC_mean                     =   1.0000000000000E+04
(PID.TID 0000.0001) %MON DXC_sd                       =   0.0000000000000E+00
(PID.TID 0000.0001) %MON DXF_max                      =   1.0000000000000E+04
(PID.TID 0000.0001) %MON DXF_min                      =   1.0000000000000E+04
(PID.TID 0000.0001) %MON DXF_mean                     =   1.0000000000000E+04
(PID.TID 0000.0001) %MON DXF_sd                       =   0.0000000000000E+00
(PID.TID 0000.0001) %MON DXG_max                      =   1.0000000000000E+04
(PID.TID 0000.0001) %MON DXG_min                      =   1.0000000000000E+04
(PID.TID 0000.0001) %MON DXG_mean                     =   1.0000000000000E+04
(PID.TID 0000.0001) %MON DXG_sd                       =   0.0000000000000E+00
(PID.TID 0000.0001) %MON DXV_max                      =   1.0000000000000E+04
(PID.TID 0000.0001) %MON DXV_min                      =   1.0000000000000E+04
(PID.TID 0000.0001) %MON DXV_mean                     =   1.0000000000000E+04
(PID.TID 0000.0001) %MON DXV_sd                       =   0.0000000000000E+00
(PID.TID 0000.0001) %MON YC_max                       =   5.9499999998863E+05
(PID.TID 0000.0001) %MON YC_min                       =   2.1773852061364E+04
(PID.TID 0000.0001) %MON YC_mean                      =   3.6568248764828E+05
(PID.TID 0000.0001) %MON YC_sd                        =   1.4616293187418E+05
(PID.TID 0000.0001) %MON YG_max                       =   5.8999999997725E+05
(PID.TID 0000.0001) %MON YG_min                       =  -1.8189894035459E-12
(PID.TID 0000.0001) %MON YG_mean                      =   3.5901582098162E+05
(PID.TID 0000.0001) %MON YG_sd                        =   1.4918819495542E+05
(PID.TID 0000.0001) %MON DYC_max                      =   4.1655495879012E+04
(PID.TID 0000.0001) %MON DYC_min                      =   1.0000000030126E+04
(PID.TID 0000.0001) %MON DYC_mean                     =   1.3333333333333E+04
(PID.TID 0000.0001) %MON DYC_sd                       =   7.9859471312509E+03
(PID.TID 0000.0001) %MON DYF_max                      =   4.3547704122728E+04
(PID.TID 0000.0001) %MON DYF_min                      =   1.0000000022748E+04
(PID.TID 0000.0001) %MON DYF_mean                     =   1.3333333333333E+04
(PID.TID 0000.0001) %MON DYF_sd                       =   8.4257600310479E+03
(PID.TID 0000.0001) %MON DYG_max                      =   4.3547704122728E+04
(PID.TID 0000.0001) %MON DYG_min                      =   1.0000000022748E+04
(PID.TID 0000.0001) %MON DYG_mean                     =   1.3333333333333E+04
(PID.TID 0000.0001) %MON DYG_sd                       =   8.4257600310479E+03
(PID.TID 0000.0001) %MON DYU_max                      =   4.1655495879012E+04
(PID.TID 0000.0001) %MON DYU_min                      =   1.0000000030126E+04
(PID.TID 0000.0001) %MON DYU_mean                     =   1.3333333333333E+04
(PID.TID 0000.0001) %MON DYU_sd                       =   7.9859471312509E+03
(PID.TID 0000.0001) %MON RA_max                       =   4.3547704122728E+08
(PID.TID 0000.0001) %MON RA_min                       =   1.0000000022748E+08
(PID.TID 0000.0001) %MON RA_mean                      =   1.3333333333333E+08
(PID.TID 0000.0001) %MON RA_sd                        =   8.4257600310479E+07
(PID.TID 0000.0001) %MON RAW_max                      =   4.3547704122728E+08
(PID.TID 0000.0001) %MON RAW_min                      =   1.0000000022748E+08
(PID.TID 0000.0001) %MON RAW_mean                     =   1.3333333333333E+08
(PID.TID 0000.0001) %MON RAW_sd                       =   8.4257600310479E+07
(PID.TID 0000.0001) %MON RAS_max                      =   4.1655495879012E+08
(PID.TID 0000.0001) %MON RAS_min                      =   1.0000000030126E+08
(PID.TID 0000.0001) %MON RAS_mean                     =   1.3333333333333E+08
(PID.TID 0000.0001) %MON RAS_sd                       =   7.9859471312509E+07
(PID.TID 0000.0001) %MON RAZ_max                      =   4.1655495879012E+08
(PID.TID 0000.0001) %MON RAZ_min                      =   1.0000000030126E+08
(PID.TID 0000.0001) %MON RAZ_mean                     =   1.3333333333333E+08
(PID.TID 0000.0001) %MON RAZ_sd                       =   7.9859471312509E+07
(PID.TID 0000.0001) %MON AngleCS_max                  =   1.0000000000000E+00
(PID.TID 0000.0001) %MON AngleCS_min                  =   1.0000000000000E+00
(PID.TID 0000.0001) %MON AngleCS_mean                 =   1.0000000000000E+00
(PID.TID 0000.0001) %MON AngleCS_sd                   =   0.0000000000000E+00
(PID.TID 0000.0001) %MON AngleSN_max                  =   0.0000000000000E+00
(PID.TID 0000.0001) %MON AngleSN_min                  =   0.0000000000000E+00
(PID.TID 0000.0001) %MON AngleSN_mean                 =   0.0000000000000E+00
(PID.TID 0000.0001) %MON AngleSN_sd                   =   0.0000000000000E+00
(PID.TID 0000.0001)  MDS_READ_FIELD: opening global file: topog.slope
(PID.TID 0000.0001) // =======================================================
(PID.TID 0000.0001) // Field Model R_low (ini_masks_etc) at iteration          1
(PID.TID 0000.0001) // CMIN =         -3.600000000000000E+03
(PID.TID 0000.0001) // CMAX =         -6.048000000000000E+02
(PID.TID 0000.0001) // CINT =          1.109333333333333E+02
(PID.TID 0000.0001) // SYMBOLS (CMIN->CMAX): -abcdefghijklmnopqrstuvwxyz+
(PID.TID 0000.0001) //                  0.0: .
(PID.TID 0000.0001) // RANGE I (Lo:Hi:Step):(    -2:   203:     1)
(PID.TID 0000.0001) // RANGE J (Lo:Hi:Step):(    48:    -2:    -1)
(PID.TID 0000.0001) // RANGE K (Lo:Hi:Step):(   1:   1:   1)
(PID.TID 0000.0001) // =======================================================
(PID.TID 0000.0001) K =   1
(PID.TID 0000.0001) //                I=7       I=17      I=27      I=31      I=41      I=51      I=55      I=65      I=75      I=79      I=89      I=99      I=103     I=113     I=123     I=127     I=137     I=147     I=151     I=161     I=171     I=175     I=185     I=195
(PID.TID 0000.0001) // |--J--|210123456|890123456|890123456|834567890|234567890|234567890|238901234|678901234|678901234|678345678|012345678|012345678|012389012|456789012|456789012|456783456|890123456|890123456|890123890|234567890|234567890|234567834|678901234|678901234|67890123
(PID.TID 0000.0001) //     48 --.-------------------------------------------------------------------------------------------------------------------------------------------------------------------------------------------------------------------------------------------------.---
(PID.TID 0000.0001) //     47 --.-------------------------------------------------------------------------------------------------------------------------------------------------------------------------------------------------------------------------------------------------.---
(PID.TID 0000.0001) //     46 ........................................................................................................................................................................................................................................................
(PID.TID 0000.0001) //     45 ............................................................................................................................................................................................................++++++++++...+++............................
(PID.TID 0000.0001) //     44 ............................................................................................................................................................................................................++++++++++...+++............................
(PID.TID 0000.0001) //     43 ............................................................................................................................................................................................................++++++++++...+++............................
(PID.TID 0000.0001) //     42 ............................................................................................................................................................................................................++++++++++...+++............................
(PID.TID 0000.0001) //     41 ............................................................................................................................................................................................................++++++++++...+++............................
(PID.TID 0000.0001) //     40 ++.+++++++++++++++++++++++++++++++++++++++++++++++++++++++++++++++++++++++++++++++++++++++++++++++++++++++++++++++++++++++++++++++++++++++++++++++++++++++++++++++++++++++++++++++++++++++++++++++++++++++++++++++++++++++++++++++++++++++++++++++++.+++
(PID.TID 0000.0001) //     39 zz.zzzzzzzzzzzzzzzzzzzzzzzzzzzzzzzzzzzzzzzzzzzzzzzzzzzzzzzzzzzzzzzzzzzzzzzzzzzzzzzzzzzzzzzzzzzzzzzzzzzzzzzzzzzzzzzzzzzzzzzzzzzzzzzzzzzzzzzzzzzzzzzzzzzzzzzzzzzzzzzzzzzzzzzzzzzzzzzzzzzzzzzzzzzzzzzzzzzzzzzzzzzzzzzzzzzzzzzzzzzzzzzzzzzzzzzzzzzzzzzzz.zzz
(PID.TID 0000.0001) //     38 yy.yyyyyyyyyyyyyyyyyyyyyyyyyyyyyyyyyyyyyyyyyyyyyyyyyyyyyyyyyyyyyyyyyyyyyyyyyyyyyyyyyyyyyyyyyyyyyyyyyyyyyyyyyyyyyyyyyyyyyyyyyyyyyyyyyyyyyyyyyyyyyyyyyyyyyyyyyyyyyyyyyyyyyyyyyyyyyyyyyyyyyyyyyyyyyyyyyyyyyyyyyyyyyyyyyyyyyyyyyyyyyyyyyyyyyyyyyyyyyyyyy.yyy
(PID.TID 0000.0001) //     37 xx.xxxxxxxxxxxxxxxxxxxxxxxxxxxxxxxxxxxxxxxxxxxxxxxxxxxxxxxxxxxxxxxxxxxxxxxxxxxxxxxxxxxxxxxxxxxxxxxxxxxxxxxxxxxxxxxxxxxxxxxxxxxxxxxxxxxxxxxxxxxxxxxxxxxxxxxxxxxxxxxxxxxxxxxxxxxxxxxxxxxxxxxxxxxxxxxxxxxxxxxxxxxxxxxxxxxxxxxxxxxxxxxxxxxxxxxxxxxxxxxxx.xxx
(PID.TID 0000.0001) //     36 ww.wwwwwwwwwwwwwwwwwwwwwwwwwwwwwwwwwwwwwwwwwwwwwwwwwwwwwwwwwwwwwwwwwwwwwwwwwwwwwwwwwwwwwwwwwwwwwwwwwwwwwwwwwwwwwwwwwwwwwwwwwwwwwwwwwwwwwwwwwwwwwwwwwwwwwwwwwwwwwwwwwwwwwwwwwwwwwwwwwwwwwwwwwwwwwwwwwwwwwwwwwwwwwwwwwwwwwwwwwwwwwwwwwwwwwwwwwwwwwwwww.www
(PID.TID 0000.0001) //     35 ww.wwwwwwwwwwwwwwwwwwwwwwwwwwwwwwwwwwwwwwwwwwwwwwwwwwwwwwwwwwwwwwwwwwwwwwwwwwwwwwwwwwwwwwwwwwwwwwwwwwwwwwwwwwwwwwwwwwwwwwwwwwwwwwwwwwwwwwwwwwwwwwwwwwwwwwwwwwwwwwwwwwwwwwwwwwwwwwwwwwwwwwwwwwwwwwwwwwwwwwwwwwwwwwwwwwwwwwwwwwwwwwwwwwwwwwwwwwwwwwwww.www
(PID.TID 0000.0001) //     34 vv.vvvvvvvvvvvvvvvvvvvvvvvvvvvvvvvvvvvvvvvvvvvvvvvvvvvvvvvvvvvvvvvvvvvvvvvvvvvvvvvvvvvvvvvvvvvvvvvvvvvvvvvvvvvvvvvvvvvvvvvvvvvvvvvvvvvvvvvvvvvvvvvvvvvvvvvvvvvvvvvvvvvvvvvvvvvvvvvvvvvvvvvvvvvvvvvvvvvvvvvvvvvvvvvvvvvvvvvvvvvvvvvvvvvvvvvvvvvvvvvvv.vvv
(PID.TID 0000.0001) //     33 uu.uuuuuuuuuuuuuuuuuuuuuuuuuuuuuuuuuuuuuuuuuuuuuuuuuuuuuuuuuuuuuuuuuuuuuuuuuuuuuuuuuuuuuuuuuuuuuuuuuuuuuuuuuuuuuuuuuuuuuuuuuuuuuuuuuuuuuuuuuuuuuuuuuuuuuuuuuuuuuuuuuuuuuuuuuuuuuuuuuuuuuuuuuuuuuuuuuuuuuuuuuuuuuuuuuuuuuuuuuuuuuuuuuuuuuuuuuuuuuuuuu.uuu
(PID.TID 0000.0001) //     32 tt.ttttttttttttttttttttttttttttttttttttttttttttttttttttttttttttttttttttttttttttttttttttttttttttttttttttttttttttttttttttttttttttttttttttttttttttttttttttttttttttttttttttttttttttttttttttttttttttttttttttttttttttttttttttttttttttttttttttttttttttttttt.ttt
(PID.TID 0000.0001) //     31 ss.sssssssssssssssssssssssssssssssssssssssssssssssssssssssssssssssssssssssssssssssssssssssssssssssssssssssssssssssssssssssssssssssssssssssssssssssssssssssssssssssssssssssssssssssssssssssssssssssssssssssssssssssssssssssssssssssssssssssssssssssss.sss
(PID.TID 0000.0001) //     30 rr.rrrrrrrrrrrrrrrrrrrrrrrrrrrrrrrrrrrrrrrrrrrrrrrrrrrrrrrrrrrrrrrrrrrrrrrrrrrrrrrrrrrrrrrrrrrrrrrrrrrrrrrrrrrrrrrrrrrrrrrrrrrrrrrrrrrrrrrrrrrrrrrrrrrrrrrrrrrrrrrrrrrrrrrrrrrrrrrrrrrrrrrrrrrrrrrrrrrrrrrrrrrrrrrrrrrrrrrrrrrrrrrrrrrrrrrrrrrrrrrrr.rrr
(PID.TID 0000.0001) //     29 qq.qqqqqqqqqqqqqqqqqqqqqqqqqqqqqqqqqqqqqqqqqqqqqqqqqqqqqqqqqqqqqqqqqqqqqqqqqqqqqqqqqqqqqqqqqqqqqqqqqqqqqqqqqqqqqqqqqqqqqqqqqqqqqqqqqqqqqqqqqqqqqqqqqqqqqqqqqqqqqqqqqqqqqqqqqqqqqqqqqqqqqqqqqqqqqqqqqqqqqqqqqqqqqqqqqqqqqqqqqqqqqqqqqqqqqqqqqqqqqqqqq.qqq
(PID.TID 0000.0001) //     28 pp.ppppppppppppppppppppppppppppppppppppppppppppppppppppppppppppppppppppppppppppppppppppppppppppppppppppppppppppppppppppppppppppppppppppppppppppppppppppppppppppppppppppppppppppppppppppppppppppppppppppppppppppppppppppppppppppppppppppppppppppppppp.ppp
(PID.TID 0000.0001) //     33 uu.uuuuuuuuuuuuuuuuuuuuuuuuuuuuuuuuuuuuuuuuuuuuuuuuuuuuuuuuuuuuuuuuuuuuuuuuuuuuuuuuuuuuuuuuuuuuuuuuuuuuuuuuuuuuuuuuuuuuuuuuuuuuuuuuuuuuuuuuuuuuuuuuuuuuuuuuuuuuuuuuuuuuuuuuuuuuuuuuuuuuuuuuuuuuuuuuuuuuuuuuuuuuuuuuuuuuuuuuuuuuuuuuuuuuuuuuuuuuuuuuu.uuu
(PID.TID 0000.0001) //     32 tt.ttttttttttttttttttttttttttttttttttttttttttttttttttttttttttttttttttttttttttttttttttttttttttttttttttttttttttttttttttttttttttttttttttttttttttttttttttttttttttttttttttttttttttttttttttttttttttttttttttttttttttttttttttttttttttttttttttttttttttttttttt.ttt
(PID.TID 0000.0001) //     31 ss.sssssssssssssssssssssssssssssssssssssssssssssssssssssssssssssssssssssssssssssssssssssssssssssssssssssssssssssssssssssssssssssssssssssssssssssssssssssssssssssssssssssssssssssssssssssssssssssssssssssssssssssssssssssssssssssssssssssssssssssssss.sss
(PID.TID 0000.0001) //     30 rr.rrrrrrrrrrrrrrrrrrrrrrrrrrrrrrrrrrrrrrrrrrrrrrrrrrrrrrrrrrrrrrrrrrrrrrrrrrrrrrrrrrrrrrrrrrrrrrrrrrrrrrrrrrrrrrrrrrrrrrrrrrrrrrrrrrrrrrrrrrrrrrrrrrrrrrrrrrrrrrrrrrrrrrrrrrrrrrrrrrrrrrrrrrrrrrrrrrrrrrrrrrrrrrrrrrrrrrrrrrrrrrrrrrrrrrrrrrrrrrrrr.rrr
(PID.TID 0000.0001) //     29 qq.qqqqqqqqqqqqqqqqqqqqqqqqqqqqqqqqqqqqqqqqqqqqqqqqqqqqqqqqqqqqqqqqqqqqqqqqqqqqqqqqqqqqqqqqqqqqqqqqqqqqqqqqqqqqqqqqqqqqqqqqqqqqqqqqqqqqqqqqqqqqqqqqqqqqqqqqqqqqqqqqqqqqqqqqqqqqqqqqqqqqqqqqqqqqqqqqqqqqqqqqqqqqqqqqqqqqqqqqqqqqqqqqqqqqqqqqqqqqqqqqq.qqq
(PID.TID 0000.0001) //     28 pp.ppppppppppppppppppppppppppppppppppppppppppppppppppppppppppppppppppppppppppppppppppppppppppppppppppppppppppppppppppppppppppppppppppppppppppppppppppppppppppppppppppppppppppppppppppppppppppppppppppppppppppppppppppppppppppppppppppppppppppppppppp.ppp
(PID.TID 0000.0001) //     27 oo.ooooooooooooooooooooooooooooooooooooooooooooooooooooooooooooooooooooooooooooooooooooooooooooooooooooooooooooooooooooooooooooooooooooooooooooooooooooooooooooooooooooooooooooooooooooooooooooooooooooooooooooooooooooooooooooooooooooooooooooooooo.ooo
(PID.TID 0000.0001) //     26 nn.nnnnnnnnnnnnnnnnnnnnnnnnnnnnnnnnnnnnnnnnnnnnnnnnnnnnnnnnnnnnnnnnnnnnnnnnnnnnnnnnnnnnnnnnnnnnnnnnnnnnnnnnnnnnnnnnnnnnnnnnnnnnnnnnnnnnnnnnnnnnnnnnnnnnnnnnnnnnnnnnnnnnnnnnnnnnnnnnnnnnnnnnnnnnnnnnnnnnnnnnnnnnnnnnnnnnnnnnnnnnnnnnnnnnnnnnnnnnnnnnn.nnn
(PID.TID 0000.0001) //     25 nn.nnnnnnnnnnnnnnnnnnnnnnnnnnnnnnnnnnnnnnnnnnnnnnnnnnnnnnnnnnnnnnnnnnnnnnnnnnnnnnnnnnnnnnnnnnnnnnnnnnnnnnnnnnnnnnnnnnnnnnnnnnnnnnnnnnnnnnnnnnnnnnnnnnnnnnnnnnnnnnnnnnnnnnnnnnnnnnnnnnnnnnnnnnnnnnnnnnnnnnnnnnnnnnnnnnnnnnnnnnnnnnnnnnnnnnnnnnnnnnnnn.nnn
(PID.TID 0000.0001) //     24 mm.mmmmmmmmmmmmmmmmmmmmmmmmmmmmmmmmmmmmmmmmmmmmmmmmmmmmmmmmmmmmmmmmmmmmmmmmmmmmmmmmmmmmmmmmmmmmmmmmmmmmmmmmmmmmmmmmmmmmmmmmmmmmmmmmmmmmmmmmmmmmmmmmmmmmmmmmmmmmmmmmmmmmmmmmmmmmmmmmmmmmmmmmmmmmmmmmmmmmmmmmmmmmmmmmmmmmmmmmmmmmmmmmmmmmmmmmmmmmmmmmm.mmm
(PID.TID 0000.0001) //     23 ll.lllllllllllllllllllllllllllllllllllllllllllllllllllllllllllllllllllllllllllllllllllllllllllllllllllllllllllllllllllllllllllllllllllllllllllllllllllllllllllllllllllllllllllllllllllllllllllllllllllllllllllllllllllllllllllllllllllllllllllllllll.lll
(PID.TID 0000.0001) //     22 kk.kkkkkkkkkkkkkkkkkkkkkkkkkkkkkkkkkkkkkkkkkkkkkkkkkkkkkkkkkkkkkkkkkkkkkkkkkkkkkkkkkkkkkkkkkkkkkkkkkkkkkkkkkkkkkkkkkkkkkkkkkkkkkkkkkkkkkkkkkkkkkkkkkkkkkkkkkkkkkkkkkkkkkkkkkkkkkkkkkkkkkkkkkkkkkkkkkkkkkkkkkkkkkkkkkkkkkkkkkkkkkkkkkkkkkkkkkkkkkkkkk.kkk
(PID.TID 0000.0001) //     21 jj.jjjjjjjjjjjjjjjjjjjjjjjjjjjjjjjjjjjjjjjjjjjjjjjjjjjjjjjjjjjjjjjjjjjjjjjjjjjjjjjjjjjjjjjjjjjjjjjjjjjjjjjjjjjjjjjjjjjjjjjjjjjjjjjjjjjjjjjjjjjjjjjjjjjjjjjjjjjjjjjjjjjjjjjjjjjjjjjjjjjjjjjjjjjjjjjjjjjjjjjjjjjjjjjjjjjjjjjjjjjjjjjjjjjjjjjjjjjjjjjjj.jjj
(PID.TID 0000.0001) //     20 ii.iiiiiiiiiiiiiiiiiiiiiiiiiiiiiiiiiiiiiiiiiiiiiiiiiiiiiiiiiiiiiiiiiiiiiiiiiiiiiiiiiiiiiiiiiiiiiiiiiiiiiiiiiiiiiiiiiiiiiiiiiiiiiiiiiiiiiiiiiiiiiiiiiiiiiiiiiiiiiiiiiiiiiiiiiiiiiiiiiiiiiiiiiiiiiiiiiiiiiiiiiiiiiiiiiiiiiiiiiiiiiiiiiiiiiiiiiiiiiiiii.iii
(PID.TID 0000.0001) //     19 hh.hhhhhhhhhhhhhhhhhhhhhhhhhhhhhhhhhhhhhhhhhhhhhhhhhhhhhhhhhhhhhhhhhhhhhhhhhhhhhhhhhhhhhhhhhhhhhhhhhhhhhhhhhhhhhhhhhhhhhhhhhhhhhhhhhhhhhhhhhhhhhhhhhhhhhhhhhhhhhhhhhhhhhhhhhhhhhhhhhhhhhhhhhhhhhhhhhhhhhhhhhhhhhhhhhhhhhhhhhhhhhhhhhhhhhhhhhhhhhhhhh.hhh
(PID.TID 0000.0001) //     18 gg.ggggggggggggggggggggggggggggggggggggggggggggggggggggggggggggggggggggggggggggggggggggggggggggggggggggggggggggggggggggggggggggggggggggggggggggggggggggggggggggggggggggggggggggggggggggggggggggggggggggggggggggggggggggggggggggggggggggggggggggggggg.ggg
(PID.TID 0000.0001) //     17 ff.fffffffffffffffffffffffffffffffffffffffffffffffffffffffffffffffffffffffffffffffffffffffffffffffffffffffffffffffffffffffffffffffffffffffffffffffffffffffffffffffffffffffffffffffffffffffffffffffffffffffffffffffffffffffffffffffffffffffffffffffff.fff
(PID.TID 0000.0001) //     16 ee.eeeeeeeeeeeeeeeeeeeeeeeeeeeeeeeeeeeeeeeeeeeeeeeeeeeeeeeeeeeeeeeeeeeeeeeeeeeeeeeeeeeeeeeeeeeeeeeeeeeeeeeeeeeeeeeeeeeeeeeeeeeeeeeeeeeeeeeeeeeeeeeeeeeeeeeeeeeeeeeeeeeeeeeeeeeeeeeeeeeeeeeeeeeeeeeeeeeeeeeeeeeeeeeeeeeeeeeeeeeeeeeeeeeeeeeeeeeeeeeee.eee
(PID.TID 0000.0001) //     15 dd.ddddddddddddddddddddddddddddddddddddddddddddddddddddddddddddddddddddddddddddddddddddddddddddddddddddddddddddddddddddddddddddddddddddddddddddddddddddddddddddddddddddddddddddddddddddddddddddddddddddddddddddddddddddddddddddddddddddddddddddddddd.ddd
(PID.TID 0000.0001) //     14 dd.ddddddddddddddddddddddddddddddddddddddddddddddddddddddddddddddddddddddddddddddddddddddddddddddddddddddddddddddddddddddddddddddddddddddddddddddddddddddddddddddddddddddddddddddddddddddddddddddddddddddddddddddddddddddddddddddddddddddddddddddddd.ddd
(PID.TID 0000.0001) //     13 cc.ccccccccccccccccccccccccccccccccccccccccccccccccccccccccccccccccccccccccccccccccccccccccccccccccccccccccccccccccccccccccccccccccccccccccccccccccccccccccccccccccccccccccccccccccccccccccccccccccccccccccccccccccccccccccccccccccccccccccccccccccc.ccc
(PID.TID 0000.0001) //     18 gg.ggggggggggggggggggggggggggggggggggggggggggggggggggggggggggggggggggggggggggggggggggggggggggggggggggggggggggggggggggggggggggggggggggggggggggggggggggggggggggggggggggggggggggggggggggggggggggggggggggggggggggggggggggggggggggggggggggggggggggggggggg.ggg
(PID.TID 0000.0001) //     17 ff.fffffffffffffffffffffffffffffffffffffffffffffffffffffffffffffffffffffffffffffffffffffffffffffffffffffffffffffffffffffffffffffffffffffffffffffffffffffffffffffffffffffffffffffffffffffffffffffffffffffffffffffffffffffffffffffffffffffffffffffffff.fff
(PID.TID 0000.0001) //     16 ee.eeeeeeeeeeeeeeeeeeeeeeeeeeeeeeeeeeeeeeeeeeeeeeeeeeeeeeeeeeeeeeeeeeeeeeeeeeeeeeeeeeeeeeeeeeeeeeeeeeeeeeeeeeeeeeeeeeeeeeeeeeeeeeeeeeeeeeeeeeeeeeeeeeeeeeeeeeeeeeeeeeeeeeeeeeeeeeeeeeeeeeeeeeeeeeeeeeeeeeeeeeeeeeeeeeeeeeeeeeeeeeeeeeeeeeeeeeeeeeeee.eee
(PID.TID 0000.0001) //     15 dd.ddddddddddddddddddddddddddddddddddddddddddddddddddddddddddddddddddddddddddddddddddddddddddddddddddddddddddddddddddddddddddddddddddddddddddddddddddddddddddddddddddddddddddddddddddddddddddddddddddddddddddddddddddddddddddddddddddddddddddddddddd.ddd
(PID.TID 0000.0001) //     14 dd.ddddddddddddddddddddddddddddddddddddddddddddddddddddddddddddddddddddddddddddddddddddddddddddddddddddddddddddddddddddddddddddddddddddddddddddddddddddddddddddddddddddddddddddddddddddddddddddddddddddddddddddddddddddddddddddddddddddddddddddddddd.ddd
(PID.TID 0000.0001) //     13 cc.ccccccccccccccccccccccccccccccccccccccccccccccccccccccccccccccccccccccccccccccccccccccccccccccccccccccccccccccccccccccccccccccccccccccccccccccccccccccccccccccccccccccccccccccccccccccccccccccccccccccccccccccccccccccccccccccccccccccccccccccccc.ccc
(PID.TID 0000.0001) //     12 bb.bbbbbbbbbbbbbbbbbbbbbbbbbbbbbbbbbbbbbbbbbbbbbbbbbbbbbbbbbbbbbbbbbbbbbbbbbbbbbbbbbbbbbbbbbbbbbbbbbbbbbbbbbbbbbbbbbbbbbbbbbbbbbbbbbbbbbbbbbbbbbbbbbbbbbbbbbbbbbbbbbbbbbbbbbbbbbbbbbbbbbbbbbbbbbbbbbbbbbbbbbbbbbbbbbbbbbbbbbbbbbbbbbbbbbbbbbbbbbbbbb.bbb
(PID.TID 0000.0001) //     11 aa.aaaaaaaaaaaaaaaaaaaaaaaaaaaaaaaaaaaaaaaaaaaaaaaaaaaaaaaaaaaaaaaaaaaaaaaaaaaaaaaaaaaaaaaaaaaaaaaaaaaaaaaaaaaaaaaaaaaaaaaaaaaaaaaaaaaaaaaaaaaaaaaaaaaaaaaaaaaaaaaaaaaaaaaaaaaaaaaaaaaaaaaaaaaaaaaaaaaaaaaaaaaaaaaaaaaaaaaaaaaaaaaaaaaaaaaaaaaaaaaaa.aaa
(PID.TID 0000.0001) //     10 --.-------------------------------------------------------------------------------------------------------------------------------------------------------------------------------------------------------------------------------------------------.---
(PID.TID 0000.0001) //      9 --.-------------------------------------------------------------------------------------------------------------------------------------------------------------------------------------------------------------------------------------------------.---
(PID.TID 0000.0001) //      8 --.-------------------------------------------------------------------------------------------------------------------------------------------------------------------------------------------------------------------------------------------------.---
(PID.TID 0000.0001) //      7 --.-------------------------------------------------------------------------------------------------------------------------------------------------------------------------------------------------------------------------------------------------.---
(PID.TID 0000.0001) //      6 --.-------------------------------------------------------------------------------------------------------------------------------------------------------------------------------------------------------------------------------------------------.---
(PID.TID 0000.0001) //      5 --.-------------------------------------------------------------------------------------------------------------------------------------------------------------------------------------------------------------------------------------------------.---
(PID.TID 0000.0001) //      4 --.-------------------------------------------------------------------------------------------------------------------------------------------------------------------------------------------------------------------------------------------------.---
(PID.TID 0000.0001) //      3 --.-------------------------------------------------------------------------------------------------------------------------------------------------------------------------------------------------------------------------------------------------.---
(PID.TID 0000.0001) //      2 --.-------------------------------------------------------------------------------------------------------------------------------------------------------------------------------------------------------------------------------------------------.---
(PID.TID 0000.0001) //      1 ........................................................................................................................................................................................................................................................
(PID.TID 0000.0001) //      0 ............................................................................................................................................................................................................++++++++++...+++............................
(PID.TID 0000.0001) //     -1 ............................................................................................................................................................................................................++++++++++...+++............................
(PID.TID 0000.0001) //     -2 ............................................................................................................................................................................................................++++++++++...+++............................
(PID.TID 0000.0001) // =======================================================
(PID.TID 0000.0001) // END OF FIELD                                          =
(PID.TID 0000.0001) // =======================================================
(PID.TID 0000.0001) 
(PID.TID 0000.0001) // =======================================================
(PID.TID 0000.0001) // Field Model Ro_surf (ini_masks_etc) at iteration          1
(PID.TID 0000.0001) // CMIN =          1.000000000000000E+32
(PID.TID 0000.0001) // CMAX =         -1.000000000000000E+32
(PID.TID 0000.0001) // CINT =          0.000000000000000E+00
(PID.TID 0000.0001) // SYMBOLS (CMIN->CMAX): -abcdefghijklmnopqrstuvwxyz+
(PID.TID 0000.0001) //                  0.0: .
(PID.TID 0000.0001) // RANGE I (Lo:Hi:Step):(    -2:   203:     1)
(PID.TID 0000.0001) // RANGE J (Lo:Hi:Step):(    48:    -2:    -1)
(PID.TID 0000.0001) // RANGE K (Lo:Hi:Step):(   1:   1:   1)
(PID.TID 0000.0001) // =======================================================
(PID.TID 0000.0001) // =======================================================
(PID.TID 0000.0001) // END OF FIELD                                          =
(PID.TID 0000.0001) // =======================================================
(PID.TID 0000.0001) 
(PID.TID 0000.0001) // =======================================================
(PID.TID 0000.0001) // Field hFacC at iteration          1
(PID.TID 0000.0001) // CMIN =          1.000000000000000E+00
(PID.TID 0000.0001) // CMAX =          1.000000000000000E+00
(PID.TID 0000.0001) // CINT =          0.000000000000000E+00
(PID.TID 0000.0001) // SYMBOLS (CMIN->CMAX): -abcdefghijklmnopqrstuvwxyz+
(PID.TID 0000.0001) //                  0.0: .
(PID.TID 0000.0001) // RANGE I (Lo:Hi:Step):(    -2:   203:     1)
(PID.TID 0000.0001) // RANGE J (Lo:Hi:Step):(    48:    -2:    -1)
(PID.TID 0000.0001) // RANGE K (Lo:Hi:Step):(   1:   1:   1)
(PID.TID 0000.0001) // =======================================================
(PID.TID 0000.0001) // =======================================================
(PID.TID 0000.0001) // END OF FIELD                                          =
(PID.TID 0000.0001) // =======================================================
(PID.TID 0000.0001) 
(PID.TID 0000.0001) // =======================================================
(PID.TID 0000.0001) // Field hFacW at iteration          1
(PID.TID 0000.0001) // CMIN =          1.000000000000000E+00
(PID.TID 0000.0001) // CMAX =          1.000000000000000E+00
(PID.TID 0000.0001) // CINT =          0.000000000000000E+00
(PID.TID 0000.0001) // SYMBOLS (CMIN->CMAX): -abcdefghijklmnopqrstuvwxyz+
(PID.TID 0000.0001) //                  0.0: .
(PID.TID 0000.0001) // RANGE I (Lo:Hi:Step):(    -2:   203:     1)
(PID.TID 0000.0001) // RANGE J (Lo:Hi:Step):(    48:    -2:    -1)
(PID.TID 0000.0001) // RANGE K (Lo:Hi:Step):(   1:   1:   1)
(PID.TID 0000.0001) // =======================================================
(PID.TID 0000.0001) // =======================================================
(PID.TID 0000.0001) // END OF FIELD                                          =
(PID.TID 0000.0001) // =======================================================
(PID.TID 0000.0001) 
(PID.TID 0000.0001) // =======================================================
(PID.TID 0000.0001) // Field hFacS at iteration          1
(PID.TID 0000.0001) // CMIN =          1.000000000000000E+00
(PID.TID 0000.0001) // CMAX =          1.000000000000000E+00
(PID.TID 0000.0001) // CINT =          0.000000000000000E+00
(PID.TID 0000.0001) // SYMBOLS (CMIN->CMAX): -abcdefghijklmnopqrstuvwxyz+
(PID.TID 0000.0001) //                  0.0: .
(PID.TID 0000.0001) // RANGE I (Lo:Hi:Step):(    -2:   203:     1)
(PID.TID 0000.0001) // RANGE J (Lo:Hi:Step):(    48:    -2:    -1)
(PID.TID 0000.0001) // RANGE K (Lo:Hi:Step):(   1:   1:   1)
(PID.TID 0000.0001) // =======================================================
(PID.TID 0000.0001) // =======================================================
(PID.TID 0000.0001) // END OF FIELD                                          =
(PID.TID 0000.0001) // =======================================================
(PID.TID 0000.0001) 
(PID.TID 0000.0001) GAD_INIT_FIXED: GAD_OlMinSize=  2  0  1
(PID.TID 0000.0001) 
(PID.TID 0000.0001) // ===================================
(PID.TID 0000.0001) // GAD parameters :
(PID.TID 0000.0001) // ===================================
(PID.TID 0000.0001) tempAdvScheme =   /* Temp. Horiz.Advection scheme selector */
(PID.TID 0000.0001)                      77
(PID.TID 0000.0001)     ;
(PID.TID 0000.0001) tempVertAdvScheme =   /* Temp. Vert. Advection scheme selector */
(PID.TID 0000.0001)                      77
(PID.TID 0000.0001)     ;
(PID.TID 0000.0001) tempMultiDimAdvec =   /* use Muti-Dim Advec method for Temp */
(PID.TID 0000.0001)                   T
(PID.TID 0000.0001)     ;
(PID.TID 0000.0001) tempSOM_Advection = /* use 2nd Order Moment Advection for Temp */
(PID.TID 0000.0001)                   F
(PID.TID 0000.0001)     ;
(PID.TID 0000.0001) AdamsBashforthGt = /* apply Adams-Bashforth extrapolation on Gt */
(PID.TID 0000.0001)                   F
(PID.TID 0000.0001)     ;
(PID.TID 0000.0001) AdamsBashforth_T = /* apply Adams-Bashforth extrapolation on Temp */
(PID.TID 0000.0001)                   F
(PID.TID 0000.0001)     ;
(PID.TID 0000.0001) saltAdvScheme =   /* Salt. Horiz.advection scheme selector */
(PID.TID 0000.0001)                      77
(PID.TID 0000.0001)     ;
(PID.TID 0000.0001) saltVertAdvScheme =   /* Salt. Vert. Advection scheme selector */
(PID.TID 0000.0001)                      77
(PID.TID 0000.0001)     ;
(PID.TID 0000.0001) saltMultiDimAdvec =   /* use Muti-Dim Advec method for Salt */
(PID.TID 0000.0001)                   T
(PID.TID 0000.0001)     ;
(PID.TID 0000.0001) saltSOM_Advection = /* use 2nd Order Moment Advection for Salt */
(PID.TID 0000.0001)                   F
(PID.TID 0000.0001)     ;
(PID.TID 0000.0001) AdamsBashforthGs = /* apply Adams-Bashforth extrapolation on Gs */
(PID.TID 0000.0001)                   F
(PID.TID 0000.0001)     ;
(PID.TID 0000.0001) AdamsBashforth_S = /* apply Adams-Bashforth extrapolation on Salt */
(PID.TID 0000.0001)                   F
(PID.TID 0000.0001)     ;
(PID.TID 0000.0001) // ===================================
(PID.TID 0000.0001) ------------------------------------------------------------
(PID.TID 0000.0001) DIAGNOSTICS_SET_LEVELS: done
(PID.TID 0000.0001)  Total Nb of available Diagnostics: ndiagt=   176
(PID.TID 0000.0001)  write list of available Diagnostics to file: available_diagnostics.log
(PID.TID 0000.0001) SETDIAG: Allocate 25 x  1 Levels for Diagnostic #   114 VISCA4D
(PID.TID 0000.0001)   space allocated for all diagnostics:      25 levels
(PID.TID 0000.0001) DIAGNOSTICS_SET_POINTERS: Set levels for Outp.Stream: visc
(PID.TID 0000.0001)  Levels:       1.   2.   3.   4.   5.   6.   7.   8.   9.  10.  11.  12.  13.  14.  15.  16.  17.  18.  19.  20.
(PID.TID 0000.0001)  Levels:      21.  22.  23.  24.  25.
(PID.TID 0000.0001) DIAGNOSTICS_SET_POINTERS: done
(PID.TID 0000.0001) ------------------------------------------------------------
(PID.TID 0000.0001) DIAGSTATS_SET_REGIONS: define no region
(PID.TID 0000.0001) ------------------------------------------------------------
(PID.TID 0000.0001)   space allocated for all stats-diags:       0 levels
(PID.TID 0000.0001) DIAGSTATS_SET_POINTERS: done
(PID.TID 0000.0001) ------------------------------------------------------------
(PID.TID 0000.0001) %MON fCori_max                    =   1.0000000000000E-04
(PID.TID 0000.0001) %MON fCori_min                    =   1.0000000000000E-04
(PID.TID 0000.0001) %MON fCori_mean                   =   1.0000000000000E-04
(PID.TID 0000.0001) %MON fCori_sd                     =   1.6263032587283E-19
(PID.TID 0000.0001) %MON fCoriG_max                   =   1.0000000000000E-04
(PID.TID 0000.0001) %MON fCoriG_min                   =   1.0000000000000E-04
(PID.TID 0000.0001) %MON fCoriG_mean                  =   1.0000000000000E-04
(PID.TID 0000.0001) %MON fCoriG_sd                    =   1.6263032587283E-19
(PID.TID 0000.0001) %MON fCoriCos_max                 =   0.0000000000000E+00
(PID.TID 0000.0001) %MON fCoriCos_min                 =   0.0000000000000E+00
(PID.TID 0000.0001) %MON fCoriCos_mean                =   0.0000000000000E+00
(PID.TID 0000.0001) %MON fCoriCos_sd                  =   0.0000000000000E+00
(PID.TID 0000.0001) INI_CG2D: CG2D normalisation factor =  6.9857849865313112E-05
(PID.TID 0000.0001) 
(PID.TID 0000.0001) // =======================================================
(PID.TID 0000.0001) // Model configuration
(PID.TID 0000.0001) // =======================================================
(PID.TID 0000.0001) //
(PID.TID 0000.0001) // "Physical" paramters ( PARM01 in namelist )
(PID.TID 0000.0001) //
(PID.TID 0000.0001) buoyancyRelation = /* Type of relation to get Buoyancy */
(PID.TID 0000.0001)               'OCEANIC'
(PID.TID 0000.0001)     ;
(PID.TID 0000.0001) fluidIsAir   =  /* fluid major constituent is Air */
(PID.TID 0000.0001)                   F
(PID.TID 0000.0001)     ;
(PID.TID 0000.0001) fluidIsWater =  /* fluid major constituent is Water */
(PID.TID 0000.0001)                   T
(PID.TID 0000.0001)     ;
(PID.TID 0000.0001) usingPCoords =  /* use p (or p*) vertical coordinate */
(PID.TID 0000.0001)                   F
(PID.TID 0000.0001)     ;
(PID.TID 0000.0001) usingZCoords =  /* use z (or z*) vertical coordinate */
(PID.TID 0000.0001)                   T
(PID.TID 0000.0001)     ;
(PID.TID 0000.0001) tRef =   /* Reference temperature profile ( oC or K ) */
(PID.TID 0000.0001)                -1.941750000000000E-01,      /* K =  1 */
(PID.TID 0000.0001)                -5.825240000000000E-01,      /* K =  2 */
(PID.TID 0000.0001)                -9.708740000000000E-01,      /* K =  3 */
(PID.TID 0000.0001)                -1.359220000000000E+00,      /* K =  4 */
(PID.TID 0000.0001)                -1.747570000000000E+00,      /* K =  5 */
(PID.TID 0000.0001)                -2.135920000000000E+00,      /* K =  6 */
(PID.TID 0000.0001)                -2.524270000000000E+00,      /* K =  7 */
(PID.TID 0000.0001)                -2.912620000000000E+00,      /* K =  8 */
(PID.TID 0000.0001)                -3.300970000000000E+00,      /* K =  9 */
(PID.TID 0000.0001)                -3.689320000000000E+00,      /* K = 10 */
(PID.TID 0000.0001)                -4.077670000000000E+00,      /* K = 11 */
(PID.TID 0000.0001)                -4.466020000000000E+00,      /* K = 12 */
(PID.TID 0000.0001)                -4.854370000000000E+00,      /* K = 13 */
(PID.TID 0000.0001)                -5.242720000000000E+00,      /* K = 14 */
(PID.TID 0000.0001)                -5.631070000000000E+00,      /* K = 15 */
(PID.TID 0000.0001)                -6.019420000000000E+00,      /* K = 16 */
(PID.TID 0000.0001)                -6.407770000000000E+00,      /* K = 17 */
(PID.TID 0000.0001)                -6.796120000000000E+00,      /* K = 18 */
(PID.TID 0000.0001)                -7.184470000000000E+00,      /* K = 19 */
(PID.TID 0000.0001)                -7.572820000000000E+00,      /* K = 20 */
(PID.TID 0000.0001)                -7.961170000000000E+00,      /* K = 21 */
(PID.TID 0000.0001)                -8.349510000000000E+00,      /* K = 22 */
(PID.TID 0000.0001)                -8.737860000000000E+00,      /* K = 23 */
(PID.TID 0000.0001)                -9.126210000000000E+00,      /* K = 24 */
(PID.TID 0000.0001)                -9.514559999999999E+00       /* K = 25 */
(PID.TID 0000.0001)     ;
(PID.TID 0000.0001) sRef =   /* Reference salinity profile ( psu ) */
(PID.TID 0000.0001)    25 @  1.000000000000000E+00              /* K =  1: 25 */
(PID.TID 0000.0001)     ;
(PID.TID 0000.0001) viscAh  =   /* Lateral eddy viscosity ( m^2/s ) */
(PID.TID 0000.0001)                 0.000000000000000E+00
(PID.TID 0000.0001)     ;
(PID.TID 0000.0001) viscAhMax = /* Maximum lateral eddy viscosity ( m^2/s ) */
(PID.TID 0000.0001)                 1.000000000000000E+21
(PID.TID 0000.0001)     ;
(PID.TID 0000.0001) viscAhGrid = /* Grid dependent lateral eddy viscosity ( non-dim. ) */
(PID.TID 0000.0001)                 0.000000000000000E+00
(PID.TID 0000.0001)     ;
(PID.TID 0000.0001) useFullLeith = /* Use Full Form of Leith Viscosity on/off flag*/
(PID.TID 0000.0001)                   F
(PID.TID 0000.0001)     ;
(PID.TID 0000.0001) useStrainTensionVisc= /* Use StrainTension Form of Viscous Operator flag*/
(PID.TID 0000.0001)                   F
(PID.TID 0000.0001)     ;
(PID.TID 0000.0001) useAreaViscLength = /* Use area for visc length instead of geom. mean*/
(PID.TID 0000.0001)                   T
(PID.TID 0000.0001)     ;
(PID.TID 0000.0001) viscC2leith = /* Leith harmonic visc. factor (on grad(vort),non-dim.) */
(PID.TID 0000.0001)                 0.000000000000000E+00
(PID.TID 0000.0001)     ;
(PID.TID 0000.0001) viscC2leithD = /* Leith harmonic viscosity factor (on grad(div),non-dim.)*/
(PID.TID 0000.0001)                 0.000000000000000E+00
(PID.TID 0000.0001)     ;
(PID.TID 0000.0001) viscC2smag = /* Smagorinsky harmonic viscosity factor (non-dim.) */
(PID.TID 0000.0001)                 0.000000000000000E+00
(PID.TID 0000.0001)     ;
(PID.TID 0000.0001) viscA4  =   /* Lateral biharmonic viscosity ( m^4/s ) */
(PID.TID 0000.0001)                 0.000000000000000E+00
(PID.TID 0000.0001)     ;
(PID.TID 0000.0001) viscA4Max = /* Maximum biharmonic viscosity ( m^2/s ) */
(PID.TID 0000.0001)                 1.000000000000000E+21
(PID.TID 0000.0001)     ;
(PID.TID 0000.0001) viscA4Grid = /* Grid dependent biharmonic viscosity ( non-dim. ) */
(PID.TID 0000.0001)                 0.000000000000000E+00
(PID.TID 0000.0001)     ;
(PID.TID 0000.0001) viscC4leith = /* Leith biharm viscosity factor (on grad(vort), non-dim.)*/
(PID.TID 0000.0001)                 1.458198138065000E+00
(PID.TID 0000.0001)     ;
(PID.TID 0000.0001) viscC4leithD = /* Leith biharm viscosity factor (on grad(div), non-dim.) */
(PID.TID 0000.0001)                 0.000000000000000E+00
(PID.TID 0000.0001)     ;
(PID.TID 0000.0001) viscC4Smag = /* Smagorinsky biharm viscosity factor (non-dim) */
(PID.TID 0000.0001)                 0.000000000000000E+00
(PID.TID 0000.0001)     ;
(PID.TID 0000.0001) no_slip_sides =  /* Viscous BCs: No-slip sides */
(PID.TID 0000.0001)                   T
(PID.TID 0000.0001)     ;
(PID.TID 0000.0001) sideDragFactor = /* side-drag scaling factor (non-dim) */
(PID.TID 0000.0001)                 2.000000000000000E+00
(PID.TID 0000.0001)     ;
(PID.TID 0000.0001) viscArNr = /* vertical profile of vertical viscosity ( m^2/s )*/
(PID.TID 0000.0001)    25 @  5.000000000000000E-01              /* K =  1: 25 */
(PID.TID 0000.0001)     ;
(PID.TID 0000.0001) no_slip_bottom =  /* Viscous BCs: No-slip bottom */
(PID.TID 0000.0001)                   T
(PID.TID 0000.0001)     ;
(PID.TID 0000.0001) bottomDragLinear = /* linear bottom-drag coefficient ( m/s ) */
(PID.TID 0000.0001)                 0.000000000000000E+00
(PID.TID 0000.0001)     ;
(PID.TID 0000.0001) bottomDragQuadratic = /* quadratic bottom-drag coefficient (-) */
(PID.TID 0000.0001)                 2.000000000000000E-03
(PID.TID 0000.0001)     ;
(PID.TID 0000.0001) diffKhT =   /* Laplacian diffusion of heat laterally ( m^2/s ) */
(PID.TID 0000.0001)                 0.000000000000000E+00
(PID.TID 0000.0001)     ;
(PID.TID 0000.0001) diffK4T =   /* Biharmonic diffusion of heat laterally ( m^4/s ) */
(PID.TID 0000.0001)                 0.000000000000000E+00
(PID.TID 0000.0001)     ;
(PID.TID 0000.0001) diffKhS =   /* Laplacian diffusion of salt laterally ( m^2/s ) */
(PID.TID 0000.0001)                 0.000000000000000E+00
(PID.TID 0000.0001)     ;
(PID.TID 0000.0001) diffK4S =   /* Biharmonic diffusion of salt laterally ( m^4/s ) */
(PID.TID 0000.0001)                 0.000000000000000E+00
(PID.TID 0000.0001)     ;
(PID.TID 0000.0001) diffKrNrT = /* vertical profile of vertical diffusion of Temp ( m^2/s )*/
(PID.TID 0000.0001)    25 @  0.000000000000000E+00              /* K =  1: 25 */
(PID.TID 0000.0001)     ;
(PID.TID 0000.0001) diffKrNrS = /* vertical profile of vertical diffusion of Salt ( m^2/s )*/
(PID.TID 0000.0001)    25 @  0.000000000000000E+00              /* K =  1: 25 */
(PID.TID 0000.0001)     ;
(PID.TID 0000.0001) diffKrBL79surf = /* Surface diffusion for Bryan and Lewis 79 ( m^2/s ) */
(PID.TID 0000.0001)                 0.000000000000000E+00
(PID.TID 0000.0001)     ;
(PID.TID 0000.0001) diffKrBL79deep = /* Deep diffusion for Bryan and Lewis 1979 ( m^2/s ) */
(PID.TID 0000.0001)                 0.000000000000000E+00
(PID.TID 0000.0001)     ;
(PID.TID 0000.0001) diffKrBL79scl = /* Depth scale for Bryan and Lewis 1979 ( m ) */
(PID.TID 0000.0001)                 2.000000000000000E+02
(PID.TID 0000.0001)     ;
(PID.TID 0000.0001) diffKrBL79Ho = /* Turning depth for Bryan and Lewis 1979 ( m ) */
(PID.TID 0000.0001)                -2.000000000000000E+03
(PID.TID 0000.0001)     ;
(PID.TID 0000.0001) ivdc_kappa = /* Implicit Vertical Diffusivity for Convection ( m^2/s) */
(PID.TID 0000.0001)                 0.000000000000000E+00
(PID.TID 0000.0001)     ;
(PID.TID 0000.0001) hMixCriteria=  /* Criteria for mixed-layer diagnostic */
(PID.TID 0000.0001)                -8.000000000000000E-01
(PID.TID 0000.0001)     ;
(PID.TID 0000.0001) dRhoSmall =  /* Parameter for mixed-layer diagnostic */
(PID.TID 0000.0001)                 1.000000000000000E-06
(PID.TID 0000.0001)     ;
(PID.TID 0000.0001) hMixSmooth=  /* Smoothing parameter for mixed-layer diagnostic */
(PID.TID 0000.0001)                 0.000000000000000E+00
(PID.TID 0000.0001)     ;
(PID.TID 0000.0001) eosType =  /* Type of Equation of State */
(PID.TID 0000.0001)               'LINEAR'
(PID.TID 0000.0001)     ;
(PID.TID 0000.0001) tAlpha =   /* Linear EOS thermal expansion coefficient ( 1/oC ) */
(PID.TID 0000.0001)                 2.000000000000000E-04
(PID.TID 0000.0001)     ;
(PID.TID 0000.0001) sBeta =   /* Linear EOS haline contraction coefficient ( 1/psu ) */
(PID.TID 0000.0001)                 0.000000000000000E+00
(PID.TID 0000.0001)     ;
(PID.TID 0000.0001) rhonil =   /* Reference density ( kg/m^3 ) */
(PID.TID 0000.0001)                 1.030000000000000E+03
(PID.TID 0000.0001)     ;
(PID.TID 0000.0001) rhoConst =   /* Reference density ( kg/m^3 ) */
(PID.TID 0000.0001)                 1.030000000000000E+03
(PID.TID 0000.0001)     ;
(PID.TID 0000.0001) rhoFacC = /* normalized Reference density @ cell-Center (-) */
(PID.TID 0000.0001)    25 @  1.000000000000000E+00              /* K =  1: 25 */
(PID.TID 0000.0001)     ;
(PID.TID 0000.0001) rhoFacF = /* normalized Reference density @ W-Interface (-) */
(PID.TID 0000.0001)    26 @  1.000000000000000E+00              /* K =  1: 26 */
(PID.TID 0000.0001)     ;
(PID.TID 0000.0001) rhoConstFresh =   /* Reference density ( kg/m^3 ) */
(PID.TID 0000.0001)                 1.030000000000000E+03
(PID.TID 0000.0001)     ;
(PID.TID 0000.0001) gravity =   /* Gravitational acceleration ( m/s^2 ) */
(PID.TID 0000.0001)                 9.810000000000000E+00
(PID.TID 0000.0001)     ;
(PID.TID 0000.0001) gBaro =   /* Barotropic gravity ( m/s^2 ) */
(PID.TID 0000.0001)                 9.810000000000000E+00
(PID.TID 0000.0001)     ;
(PID.TID 0000.0001) rotationPeriod =   /* Rotation Period ( s ) */
(PID.TID 0000.0001)                 8.616400000000000E+04
(PID.TID 0000.0001)     ;
(PID.TID 0000.0001) omega =   /* Angular velocity ( rad/s ) */
(PID.TID 0000.0001)                 7.292123516990375E-05
(PID.TID 0000.0001)     ;
(PID.TID 0000.0001) f0 =   /* Reference coriolis parameter ( 1/s ) */
(PID.TID 0000.0001)                 1.000000000000000E-04
(PID.TID 0000.0001)     ;
(PID.TID 0000.0001) beta =   /* Beta ( 1/(m.s) ) */
(PID.TID 0000.0001)                 0.000000000000000E+00
(PID.TID 0000.0001)     ;
(PID.TID 0000.0001) fPrime =   /* Second coriolis parameter ( 1/s ) */
(PID.TID 0000.0001)                 0.000000000000000E+00
(PID.TID 0000.0001)     ;
(PID.TID 0000.0001) rigidLid =   /* Rigid lid on/off flag */
(PID.TID 0000.0001)                   F
(PID.TID 0000.0001)     ;
(PID.TID 0000.0001) implicitFreeSurface =   /* Implicit free surface on/off flag */
(PID.TID 0000.0001)                   T
(PID.TID 0000.0001)     ;
(PID.TID 0000.0001) freeSurfFac =   /* Implicit free surface factor */
(PID.TID 0000.0001)                 1.000000000000000E+00
(PID.TID 0000.0001)     ;
(PID.TID 0000.0001) implicSurfPress =  /* Surface Pressure implicit factor (0-1)*/
(PID.TID 0000.0001)                 1.000000000000000E+00
(PID.TID 0000.0001)     ;
(PID.TID 0000.0001) implicDiv2Dflow =  /* Barot. Flow Div. implicit factor (0-1)*/
(PID.TID 0000.0001)                 1.000000000000000E+00
(PID.TID 0000.0001)     ;
(PID.TID 0000.0001) exactConserv =  /* Exact Volume Conservation on/off flag*/
(PID.TID 0000.0001)                   F
(PID.TID 0000.0001)     ;
(PID.TID 0000.0001) linFSConserveTr = /* Tracer correction for Lin Free Surface on/off flag*/
(PID.TID 0000.0001)                   F
(PID.TID 0000.0001)     ;
(PID.TID 0000.0001) uniformLin_PhiSurf = /* use uniform Bo_surf on/off flag*/
(PID.TID 0000.0001)                   T
(PID.TID 0000.0001)     ;
(PID.TID 0000.0001) hFacMin =   /* minimum partial cell factor (hFac) */
(PID.TID 0000.0001)                 2.000000000000000E-01
(PID.TID 0000.0001)     ;
(PID.TID 0000.0001) hFacMinDr = /* minimum partial cell thickness ( m) */
(PID.TID 0000.0001)                 2.000000000000000E-01
(PID.TID 0000.0001)     ;
(PID.TID 0000.0001) nonlinFreeSurf = /* Non-linear Free Surf. options (-1,0,1,2,3)*/
(PID.TID 0000.0001)                       0
(PID.TID 0000.0001)      -1,0= Off ; 1,2,3= On, 2=+rescale gU,gV, 3=+update cg2d solv.
(PID.TID 0000.0001)     ;
(PID.TID 0000.0001) hFacInf =   /* lower threshold for hFac (nonlinFreeSurf only)*/
(PID.TID 0000.0001)                 2.000000000000000E-01
(PID.TID 0000.0001)     ;
(PID.TID 0000.0001) hFacSup =   /* upper threshold for hFac (nonlinFreeSurf only)*/
(PID.TID 0000.0001)                 2.000000000000000E+00
(PID.TID 0000.0001)     ;
(PID.TID 0000.0001) select_rStar = /* r* Vertical coord. options (=0 r coord.; >0 uses r*)*/
(PID.TID 0000.0001)                       0
(PID.TID 0000.0001)     ;
(PID.TID 0000.0001) selectAddFluid = /* option for mass source/sink of fluid (=0: off) */
(PID.TID 0000.0001)                       0
(PID.TID 0000.0001)     ;
(PID.TID 0000.0001) useRealFreshWaterFlux = /* Real Fresh Water Flux on/off flag*/
(PID.TID 0000.0001)                   F
(PID.TID 0000.0001)     ;
(PID.TID 0000.0001) temp_EvPrRn = /* Temp. of Evap/Prec/R (UNSET=use local T)(oC)*/
(PID.TID 0000.0001)                 1.234567000000000E+05
(PID.TID 0000.0001)     ;
(PID.TID 0000.0001) salt_EvPrRn = /* Salin. of Evap/Prec/R (UNSET=use local S)(psu)*/
(PID.TID 0000.0001)                 0.000000000000000E+00
(PID.TID 0000.0001)     ;
(PID.TID 0000.0001) temp_addMass = /* Temp. of addMass array (UNSET=use local T)(oC)*/
(PID.TID 0000.0001)                 1.234567000000000E+05
(PID.TID 0000.0001)     ;
(PID.TID 0000.0001) salt_addMass = /* Salin. of addMass array (UNSET=use local S)(psu)*/
(PID.TID 0000.0001)                 0.000000000000000E+00
(PID.TID 0000.0001)     ;
(PID.TID 0000.0001) convertFW2Salt = /* convert F.W. Flux to Salt Flux (-1=use local S)(psu)*/
(PID.TID 0000.0001)                 3.500000000000000E+01
(PID.TID 0000.0001)     ;
(PID.TID 0000.0001) use3Dsolver = /* use 3-D pressure solver on/off flag */
(PID.TID 0000.0001)                   F
(PID.TID 0000.0001)     ;
(PID.TID 0000.0001) nonHydrostatic =  /* Non-Hydrostatic on/off flag */
(PID.TID 0000.0001)                   F
(PID.TID 0000.0001)     ;
(PID.TID 0000.0001) nh_Am2 = /* Non-Hydrostatic terms scaling factor */
(PID.TID 0000.0001)                 1.000000000000000E+00
(PID.TID 0000.0001)     ;
(PID.TID 0000.0001) implicitNHPress = /* Non-Hyd Pressure implicit factor (0-1)*/
(PID.TID 0000.0001)                 1.000000000000000E+00
(PID.TID 0000.0001)     ;
(PID.TID 0000.0001) selectNHfreeSurf = /* Non-Hyd (free-)Surface option */
(PID.TID 0000.0001)                       0
(PID.TID 0000.0001)     ;
(PID.TID 0000.0001) quasiHydrostatic = /* Quasi-Hydrostatic on/off flag */
(PID.TID 0000.0001)                   F
(PID.TID 0000.0001)     ;
(PID.TID 0000.0001) momStepping =  /* Momentum equation on/off flag */
(PID.TID 0000.0001)                   T
(PID.TID 0000.0001)     ;
(PID.TID 0000.0001) vectorInvariantMomentum= /* Vector-Invariant Momentum on/off */
(PID.TID 0000.0001)                   T
(PID.TID 0000.0001)     ;
(PID.TID 0000.0001) momAdvection =  /* Momentum advection on/off flag */
(PID.TID 0000.0001)                   T
(PID.TID 0000.0001)     ;
(PID.TID 0000.0001) momViscosity =  /* Momentum viscosity on/off flag */
(PID.TID 0000.0001)                   T
(PID.TID 0000.0001)     ;
(PID.TID 0000.0001) momImplVertAdv= /* Momentum implicit vert. advection on/off*/
(PID.TID 0000.0001)                   F
(PID.TID 0000.0001)     ;
(PID.TID 0000.0001) implicitViscosity = /* Implicit viscosity on/off flag */
(PID.TID 0000.0001)                   F
(PID.TID 0000.0001)     ;
(PID.TID 0000.0001) metricTerms =  /* metric-Terms on/off flag */
(PID.TID 0000.0001)                   F
(PID.TID 0000.0001)     ;
(PID.TID 0000.0001) useNHMTerms = /* Non-Hydrostatic Metric-Terms on/off */
(PID.TID 0000.0001)                   F
(PID.TID 0000.0001)     ;
(PID.TID 0000.0001) selectCoriMap = /* Coriolis Map options (0,1,2,3)*/
(PID.TID 0000.0001)                       1
(PID.TID 0000.0001)     0= f-Plane ; 1= Beta-Plane ; 2= Spherical ; 3= read from file
(PID.TID 0000.0001)     ;
(PID.TID 0000.0001) use3dCoriolis = /* 3-D Coriolis on/off flag */
(PID.TID 0000.0001)                   F
(PID.TID 0000.0001)     ;
(PID.TID 0000.0001) useCoriolis =  /* Coriolis on/off flag */
(PID.TID 0000.0001)                   T
(PID.TID 0000.0001)     ;
(PID.TID 0000.0001) useCDscheme =  /* CD scheme on/off flag */
(PID.TID 0000.0001)                   F
(PID.TID 0000.0001)     ;
(PID.TID 0000.0001) useJamartWetPoints= /* Coriolis WetPoints method flag */
(PID.TID 0000.0001)                   F
(PID.TID 0000.0001)     ;
(PID.TID 0000.0001) useJamartMomAdv= /* V.I. Non-linear terms Jamart flag */
(PID.TID 0000.0001)                   F
(PID.TID 0000.0001)     ;
(PID.TID 0000.0001) useAbsVorticity= /* Work with f+zeta in Coriolis */
(PID.TID 0000.0001)                   F
(PID.TID 0000.0001)     ;
(PID.TID 0000.0001) selectVortScheme= /* Scheme selector for Vorticity-Term */
(PID.TID 0000.0001)                       1
(PID.TID 0000.0001)    = 0 : enstrophy (Shallow-Water Eq.) conserving scheme by Sadourny, JAS 75
(PID.TID 0000.0001)    = 1 : same as 0 with modified hFac
(PID.TID 0000.0001)    = 2 : energy conserving scheme (used by Sadourny in JAS 75 paper)
(PID.TID 0000.0001)    = 3 : energy (general) and enstrophy (2D, nonDiv.) conserving scheme
(PID.TID 0000.0001)          from Sadourny (Burridge & Haseler, ECMWF Rep.4, 1977)
(PID.TID 0000.0001)     ;
(PID.TID 0000.0001) upwindVorticity= /* Upwind bias vorticity flag */
(PID.TID 0000.0001)                   F
(PID.TID 0000.0001)     ;
(PID.TID 0000.0001) highOrderVorticity= /* High order interp. of vort. flag */
(PID.TID 0000.0001)                   F
(PID.TID 0000.0001)     ;
(PID.TID 0000.0001) upwindShear= /* Upwind vertical Shear advection flag */
(PID.TID 0000.0001)                   F
(PID.TID 0000.0001)     ;
(PID.TID 0000.0001) selectKEscheme= /* Kinetic Energy scheme selector */
(PID.TID 0000.0001)                       0
(PID.TID 0000.0001)     ;
(PID.TID 0000.0001) momForcing =  /* Momentum forcing on/off flag */
(PID.TID 0000.0001)                   T
(PID.TID 0000.0001)     ;
(PID.TID 0000.0001) momPressureForcing =  /* Momentum pressure term on/off flag */
(PID.TID 0000.0001)                   T
(PID.TID 0000.0001)     ;
(PID.TID 0000.0001) implicitIntGravWave= /* Implicit Internal Gravity Wave flag */
(PID.TID 0000.0001)                   F
(PID.TID 0000.0001)     ;
(PID.TID 0000.0001) staggerTimeStep =   /* Stagger time stepping on/off flag */
(PID.TID 0000.0001)                   T
(PID.TID 0000.0001)     ;
(PID.TID 0000.0001) multiDimAdvection =   /* enable/disable Multi-Dim Advection */
(PID.TID 0000.0001)                   T
(PID.TID 0000.0001)     ;
(PID.TID 0000.0001) useMultiDimAdvec =   /* Multi-Dim Advection is/is-not used */
(PID.TID 0000.0001)                   T
(PID.TID 0000.0001)     ;
(PID.TID 0000.0001) implicitDiffusion = /* Implicit Diffusion on/off flag */
(PID.TID 0000.0001)                   F
(PID.TID 0000.0001)     ;
(PID.TID 0000.0001) tempStepping =  /* Temperature equation on/off flag */
(PID.TID 0000.0001)                   T
(PID.TID 0000.0001)     ;
(PID.TID 0000.0001) tempAdvection=  /* Temperature advection on/off flag */
(PID.TID 0000.0001)                   T
(PID.TID 0000.0001)     ;
(PID.TID 0000.0001) tempImplVertAdv = /* Temp. implicit vert. advection on/off */
(PID.TID 0000.0001)                   F
(PID.TID 0000.0001)     ;
(PID.TID 0000.0001) tempForcing  =  /* Temperature forcing on/off flag */
(PID.TID 0000.0001)                   T
(PID.TID 0000.0001)     ;
(PID.TID 0000.0001) tempIsActiveTr = /* Temp. is a dynamically Active Tracer */
(PID.TID 0000.0001)                   T
(PID.TID 0000.0001)     ;
(PID.TID 0000.0001) saltStepping =  /* Salinity equation on/off flag */
(PID.TID 0000.0001)                   T
(PID.TID 0000.0001)     ;
(PID.TID 0000.0001) saltAdvection=  /* Salinity advection on/off flag */
(PID.TID 0000.0001)                   T
(PID.TID 0000.0001)     ;
(PID.TID 0000.0001) saltImplVertAdv = /* Sali. implicit vert. advection on/off */
(PID.TID 0000.0001)                   F
(PID.TID 0000.0001)     ;
(PID.TID 0000.0001) saltForcing  =  /* Salinity forcing on/off flag */
(PID.TID 0000.0001)                   T
(PID.TID 0000.0001)     ;
(PID.TID 0000.0001) saltIsActiveTr = /* Salt  is a dynamically Active Tracer */
(PID.TID 0000.0001)                   F
(PID.TID 0000.0001)     ;
(PID.TID 0000.0001)  readBinaryPrec = /* Precision used for reading binary files */
(PID.TID 0000.0001)                      64
(PID.TID 0000.0001)     ;
(PID.TID 0000.0001) writeBinaryPrec = /* Precision used for writing binary files */
(PID.TID 0000.0001)                      64
(PID.TID 0000.0001)     ;
(PID.TID 0000.0001)  globalFiles = /* write "global" (=not per tile) files */
(PID.TID 0000.0001)                   F
(PID.TID 0000.0001)     ;
(PID.TID 0000.0001)  useSingleCpuIO = /* only master MPI process does I/O */
(PID.TID 0000.0001)                   F
(PID.TID 0000.0001)     ;
(PID.TID 0000.0001)  debugMode  =  /* Debug Mode on/off flag */
(PID.TID 0000.0001)                   F
(PID.TID 0000.0001)     ;
(PID.TID 0000.0001)    debLevA  =  /* 1rst level of debugging */
(PID.TID 0000.0001)                       1
(PID.TID 0000.0001)     ;
(PID.TID 0000.0001)    debLevB  =  /* 2nd  level of debugging */
(PID.TID 0000.0001)                       2
(PID.TID 0000.0001)     ;
(PID.TID 0000.0001)  debugLevel =  /* select debugging level */
(PID.TID 0000.0001)                       1
(PID.TID 0000.0001)     ;
(PID.TID 0000.0001) //
(PID.TID 0000.0001) // Elliptic solver(s) paramters ( PARM02 in namelist )
(PID.TID 0000.0001) //
(PID.TID 0000.0001) cg2dMaxIters =   /* Upper limit on 2d con. grad iterations  */
(PID.TID 0000.0001)                    1000
(PID.TID 0000.0001)     ;
(PID.TID 0000.0001) cg2dChkResFreq =   /* 2d con. grad convergence test frequency */
(PID.TID 0000.0001)                       1
(PID.TID 0000.0001)     ;
(PID.TID 0000.0001) cg2dTargetResidual =   /* 2d con. grad target residual  */
(PID.TID 0000.0001)                 9.999999999999999E-12
(PID.TID 0000.0001)     ;
(PID.TID 0000.0001) cg2dTargetResWunit =   /* CG2d target residual [W units] */
(PID.TID 0000.0001)                -1.000000000000000E+00
(PID.TID 0000.0001)     ;
(PID.TID 0000.0001) cg2dPreCondFreq =   /* Freq. for updating cg2d preconditioner */
(PID.TID 0000.0001)                       1
(PID.TID 0000.0001)     ;
(PID.TID 0000.0001) useSRCGSolver =  /* use single reduction CG solver(s) */
(PID.TID 0000.0001)                   F
(PID.TID 0000.0001)     ;
(PID.TID 0000.0001) //
(PID.TID 0000.0001) // Time stepping paramters ( PARM03 in namelist )
(PID.TID 0000.0001) //
(PID.TID 0000.0001) deltaTmom =   /* Momentum equation timestep ( s ) */
(PID.TID 0000.0001)                 3.000000000000000E+02
(PID.TID 0000.0001)     ;
(PID.TID 0000.0001) deltaTfreesurf = /* FreeSurface equation timestep ( s ) */
(PID.TID 0000.0001)                 3.000000000000000E+02
(PID.TID 0000.0001)     ;
(PID.TID 0000.0001) dTtracerLev =  /* Tracer equation timestep ( s ) */
(PID.TID 0000.0001)    25 @  3.000000000000000E+02              /* K =  1: 25 */
(PID.TID 0000.0001)     ;
(PID.TID 0000.0001) deltaTClock  =   /* Model clock timestep ( s ) */
(PID.TID 0000.0001)                 3.000000000000000E+02
(PID.TID 0000.0001)     ;
(PID.TID 0000.0001) cAdjFreq =   /* Convective adjustment interval ( s ) */
(PID.TID 0000.0001)                 0.000000000000000E+00
(PID.TID 0000.0001)     ;
(PID.TID 0000.0001) momForcingOutAB = /* =1: take Momentum Forcing out of Adams-Bash. stepping */
(PID.TID 0000.0001)                       0
(PID.TID 0000.0001)     ;
(PID.TID 0000.0001) tracForcingOutAB = /* =1: take T,S,pTr Forcing out of Adams-Bash. stepping */
(PID.TID 0000.0001)                       0
(PID.TID 0000.0001)     ;
(PID.TID 0000.0001) momDissip_In_AB = /* put Dissipation Tendency in Adams-Bash. stepping */
(PID.TID 0000.0001)                   T
(PID.TID 0000.0001)     ;
(PID.TID 0000.0001) doAB_onGtGs = /* apply AB on Tendencies (rather than on T,S)*/
(PID.TID 0000.0001)                   T
(PID.TID 0000.0001)     ;
(PID.TID 0000.0001) abEps =   /* Adams-Bashforth-2 stabilizing weight */
(PID.TID 0000.0001)                 1.000000000000000E-01
(PID.TID 0000.0001)     ;
(PID.TID 0000.0001) pickupStrictlyMatch= /* stop if pickup do not strictly match */
(PID.TID 0000.0001)                   T
(PID.TID 0000.0001)     ;
(PID.TID 0000.0001) nIter0   =   /* Run starting timestep number */
(PID.TID 0000.0001)                       0
(PID.TID 0000.0001)     ;
(PID.TID 0000.0001) nTimeSteps = /* Number of timesteps */
(PID.TID 0000.0001)                      20
(PID.TID 0000.0001)     ;
(PID.TID 0000.0001) nEndIter =   /* Run ending timestep number */
(PID.TID 0000.0001)                      20
(PID.TID 0000.0001)     ;
(PID.TID 0000.0001) baseTime =   /* Model base time ( s ) */
(PID.TID 0000.0001)                 0.000000000000000E+00
(PID.TID 0000.0001)     ;
(PID.TID 0000.0001) startTime =  /* Run start time ( s ) */
(PID.TID 0000.0001)                 0.000000000000000E+00
(PID.TID 0000.0001)     ;
(PID.TID 0000.0001) endTime  =   /* Integration ending time ( s ) */
(PID.TID 0000.0001)                 6.000000000000000E+03
(PID.TID 0000.0001)     ;
(PID.TID 0000.0001) pChkPtFreq = /* Permanent restart/pickup file interval ( s ) */
(PID.TID 0000.0001)                 0.000000000000000E+00
(PID.TID 0000.0001)     ;
(PID.TID 0000.0001) chkPtFreq  = /* Rolling restart/pickup file interval ( s ) */
(PID.TID 0000.0001)                 1.000000000000000E+05
(PID.TID 0000.0001)     ;
(PID.TID 0000.0001) pickup_write_mdsio =   /* Model IO flag. */
(PID.TID 0000.0001)                   T
(PID.TID 0000.0001)     ;
(PID.TID 0000.0001) pickup_read_mdsio =   /* Model IO flag. */
(PID.TID 0000.0001)                   T
(PID.TID 0000.0001)     ;
(PID.TID 0000.0001) pickup_write_immed =   /* Model IO flag. */
(PID.TID 0000.0001)                   F
(PID.TID 0000.0001)     ;
(PID.TID 0000.0001) writePickupAtEnd =   /* Model IO flag. */
(PID.TID 0000.0001)                   T
(PID.TID 0000.0001)     ;
(PID.TID 0000.0001) dumpFreq =   /* Model state write out interval ( s ). */
(PID.TID 0000.0001)                 3.000000000000000E+04
(PID.TID 0000.0001)     ;
(PID.TID 0000.0001) dumpInitAndLast= /* write out Initial & Last iter. model state */
(PID.TID 0000.0001)                   T
(PID.TID 0000.0001)     ;
(PID.TID 0000.0001) snapshot_mdsio =   /* Model IO flag. */
(PID.TID 0000.0001)                   T
(PID.TID 0000.0001)     ;
(PID.TID 0000.0001) monitorFreq =   /* Monitor output interval ( s ). */
(PID.TID 0000.0001)                 3.000000000000000E+02
(PID.TID 0000.0001)     ;
(PID.TID 0000.0001) monitorSelect = /* select group of variables to monitor */
(PID.TID 0000.0001)                       2
(PID.TID 0000.0001)     ;
(PID.TID 0000.0001) monitor_stdio =   /* Model IO flag. */
(PID.TID 0000.0001)                   T
(PID.TID 0000.0001)     ;
(PID.TID 0000.0001) externForcingPeriod =   /* forcing period (s) */
(PID.TID 0000.0001)                 0.000000000000000E+00
(PID.TID 0000.0001)     ;
(PID.TID 0000.0001) externForcingCycle =   /* period of the cyle (s). */
(PID.TID 0000.0001)                 0.000000000000000E+00
(PID.TID 0000.0001)     ;
(PID.TID 0000.0001) tauThetaClimRelax =   /* relaxation time scale (s) */
(PID.TID 0000.0001)                 0.000000000000000E+00
(PID.TID 0000.0001)     ;
(PID.TID 0000.0001) tauSaltClimRelax =   /* relaxation time scale (s) */
(PID.TID 0000.0001)                 0.000000000000000E+00
(PID.TID 0000.0001)     ;
(PID.TID 0000.0001) latBandClimRelax =   /* max. Lat. where relaxation */
(PID.TID 0000.0001)                 1.800000000000000E+06
(PID.TID 0000.0001)     ;
(PID.TID 0000.0001) //
(PID.TID 0000.0001) // Gridding paramters ( PARM04 in namelist )
(PID.TID 0000.0001) //
(PID.TID 0000.0001) usingCartesianGrid = /* Cartesian coordinates flag ( True/False ) */
(PID.TID 0000.0001)                   T
(PID.TID 0000.0001)     ;
(PID.TID 0000.0001) usingCylindricalGrid = /* Cylindrical coordinates flag ( True/False ) */
(PID.TID 0000.0001)                   F
(PID.TID 0000.0001)     ;
(PID.TID 0000.0001) usingSphericalPolarGrid = /* Spherical coordinates flag ( True/False ) */
(PID.TID 0000.0001)                   F
(PID.TID 0000.0001)     ;
(PID.TID 0000.0001) usingCurvilinearGrid = /* Curvilinear coordinates flag ( True/False ) */
(PID.TID 0000.0001)                   F
(PID.TID 0000.0001)     ;
(PID.TID 0000.0001) selectSigmaCoord = /* Hybrid-Sigma Vert. Coordinate option */
(PID.TID 0000.0001)                       0
(PID.TID 0000.0001)     ;
(PID.TID 0000.0001) Ro_SeaLevel = /* r(1) ( units of r ==  m ) */
(PID.TID 0000.0001)                 0.000000000000000E+00
(PID.TID 0000.0001)     ;
(PID.TID 0000.0001) rSigmaBnd = /* r/sigma transition ( units of r ==  m ) */
(PID.TID 0000.0001)                 1.234567000000000E+05
(PID.TID 0000.0001)     ;
(PID.TID 0000.0001) rkSign =   /* index orientation relative to vertical coordinate */
(PID.TID 0000.0001)                -1.000000000000000E+00
(PID.TID 0000.0001)     ;
(PID.TID 0000.0001) gravitySign = /* gravity orientation relative to vertical coordinate */
(PID.TID 0000.0001)                -1.000000000000000E+00
(PID.TID 0000.0001)     ;
(PID.TID 0000.0001) mass2rUnit = /* convert mass per unit area [kg/m2] to r-units [m] */
(PID.TID 0000.0001)                 9.708737864077669E-04
(PID.TID 0000.0001)     ;
(PID.TID 0000.0001) rUnit2mass = /* convert r-units [m] to mass per unit area [kg/m2] */
(PID.TID 0000.0001)                 1.030000000000000E+03
(PID.TID 0000.0001)     ;
(PID.TID 0000.0001) drC =   /* C spacing ( units of r ) */
(PID.TID 0000.0001)                 7.200000000000000E+01,      /* K =  1 */
(PID.TID 0000.0001)    24 @  1.440000000000000E+02              /* K =  2: 25 */
(PID.TID 0000.0001)     ;
(PID.TID 0000.0001) drF =   /* W spacing ( units of r ) */
(PID.TID 0000.0001)    25 @  1.440000000000000E+02              /* K =  1: 25 */
(PID.TID 0000.0001)     ;
(PID.TID 0000.0001) delX = /* U spacing ( m - cartesian, degrees - spherical ) */
(PID.TID 0000.0001)   200 @  1.000000000000000E+04              /* I =  1:200 */
(PID.TID 0000.0001)     ;
(PID.TID 0000.0001) delY = /* V spacing ( m - cartesian, degrees - spherical ) */
(PID.TID 0000.0001)                 4.354770412272808E+04,      /* J =  1 */
(PID.TID 0000.0001)                 3.976328763529614E+04,      /* J =  2 */
(PID.TID 0000.0001)                 3.845253979986927E+04,      /* J =  3 */
(PID.TID 0000.0001)                 3.330179774422351E+04,      /* J =  4 */
(PID.TID 0000.0001)                 2.498218561664100E+04,      /* J =  5 */
(PID.TID 0000.0001)                 1.850347835747289E+04,      /* J =  6 */
(PID.TID 0000.0001)                 1.476940894853175E+04,      /* J =  7 */
(PID.TID 0000.0001)                 1.272781949244290E+04,      /* J =  8 */
(PID.TID 0000.0001)                 1.159189758968330E+04,      /* J =  9 */
(PID.TID 0000.0001)                 1.094219501627191E+04,      /* J = 10 */
(PID.TID 0000.0001)                 1.056279034603045E+04,      /* J = 11 */
(PID.TID 0000.0001)                 1.033823866459392E+04,      /* J = 12 */
(PID.TID 0000.0001)                 1.020398171822501E+04,      /* J = 13 */
(PID.TID 0000.0001)                 1.012328472029299E+04,      /* J = 14 */
(PID.TID 0000.0001)                 1.007461407944328E+04,      /* J = 15 */
(PID.TID 0000.0001)                 1.004519587625975E+04,      /* J = 16 */
(PID.TID 0000.0001)                 1.002739060034890E+04,      /* J = 17 */
(PID.TID 0000.0001)                 1.001660509967246E+04,      /* J = 18 */
(PID.TID 0000.0001)                 1.001006850448283E+04,      /* J = 19 */
(PID.TID 0000.0001)                 1.000610575317793E+04,      /* J = 20 */
(PID.TID 0000.0001)                 1.000370292038679E+04,      /* J = 21 */
(PID.TID 0000.0001)                 1.000224578530626E+04,      /* J = 22 */
(PID.TID 0000.0001)                 1.000136208265968E+04,      /* J = 23 */
(PID.TID 0000.0001)                 1.000082612466494E+04,      /* J = 24 */
(PID.TID 0000.0001)                 1.000050106249572E+04,      /* J = 25 */
(PID.TID 0000.0001)                 1.000030390702810E+04,      /* J = 26 */
(PID.TID 0000.0001)                 1.000018432792299E+04,      /* J = 27 */
(PID.TID 0000.0001)                 1.000011180016617E+04,      /* J = 28 */
(PID.TID 0000.0001)                 1.000006781009222E+04,      /* J = 29 */
(PID.TID 0000.0001)                 1.000004112884983E+04,      /* J = 30 */
(PID.TID 0000.0001)                 1.000002494588998E+04,      /* J = 31 */
(PID.TID 0000.0001)                 1.000001513044032E+04,      /* J = 32 */
(PID.TID 0000.0001)                 1.000000917707345E+04,      /* J = 33 */
(PID.TID 0000.0001)                 1.000000556617549E+04,      /* J = 34 */
(PID.TID 0000.0001)                 1.000000337605576E+04,      /* J = 35 */
(PID.TID 0000.0001)                 1.000000204768121E+04,      /* J = 36 */
(PID.TID 0000.0001)                 1.000000124198138E+04,      /* J = 37 */
(PID.TID 0000.0001)                 1.000000075329977E+04,      /* J = 38 */
(PID.TID 0000.0001)                 1.000000045689940E+04,      /* J = 39 */
(PID.TID 0000.0001)                 1.000000027712349E+04,      /* J = 40 */
(PID.TID 0000.0001)                 1.000000016808389E+04,      /* J = 41 */
(PID.TID 0000.0001)                 1.000000010194804E+04,      /* J = 42 */
(PID.TID 0000.0001)                 1.000000006183461E+04,      /* J = 43 */
(PID.TID 0000.0001)                 1.000000003750459E+04,      /* J = 44 */
(PID.TID 0000.0001)                 1.000000002274768E+04       /* J = 45 */
(PID.TID 0000.0001)     ;
(PID.TID 0000.0001) xgOrigin = /* X-axis origin of West  edge (cartesian: m, lat-lon: deg.) */
(PID.TID 0000.0001)                 0.000000000000000E+00
(PID.TID 0000.0001)     ;
(PID.TID 0000.0001) ygOrigin = /* Y-axis origin of South edge (cartesian: m, lat-lon: deg.) */
(PID.TID 0000.0001)                 0.000000000000000E+00
(PID.TID 0000.0001)     ;
(PID.TID 0000.0001) rSphere =  /* Radius ( ignored - cartesian, m - spherical ) */
(PID.TID 0000.0001)                 6.370000000000000E+06
(PID.TID 0000.0001)     ;
(PID.TID 0000.0001) deepAtmosphere = /* Deep/Shallow Atmosphere flag (True/False) */
(PID.TID 0000.0001)                   F
(PID.TID 0000.0001)     ;
(PID.TID 0000.0001) xC =  /* xC(:,1,:,1) : P-point X coord ( deg. or m if cartesian) */
(PID.TID 0000.0001)                 5.000000000000000E+03,      /* I =  1 */
(PID.TID 0000.0001)                 1.500000000000000E+04,      /* I =  2 */
(PID.TID 0000.0001)                 2.500000000000000E+04,      /* I =  3 */
(PID.TID 0000.0001)      . . .
(PID.TID 0000.0001)                 4.750000000000000E+05,      /* I = 48 */
(PID.TID 0000.0001)                 4.850000000000000E+05,      /* I = 49 */
(PID.TID 0000.0001)                 4.950000000000000E+05,      /* I = 50 */
(PID.TID 0000.0001)                 5.050000000000000E+05,      /* I = 51 */
(PID.TID 0000.0001)                 5.150000000000000E+05,      /* I = 52 */
(PID.TID 0000.0001)                 5.250000000000000E+05,      /* I = 53 */
(PID.TID 0000.0001)      . . .
(PID.TID 0000.0001)                 9.750000000000000E+05,      /* I = 98 */
(PID.TID 0000.0001)                 9.850000000000000E+05,      /* I = 99 */
(PID.TID 0000.0001)                 9.950000000000000E+05,      /* I =100 */
(PID.TID 0000.0001)                 1.005000000000000E+06,      /* I =101 */
(PID.TID 0000.0001)                 1.015000000000000E+06,      /* I =102 */
(PID.TID 0000.0001)                 1.025000000000000E+06,      /* I =103 */
(PID.TID 0000.0001)      . . .
(PID.TID 0000.0001)                 1.475000000000000E+06,      /* I =148 */
(PID.TID 0000.0001)                 1.485000000000000E+06,      /* I =149 */
(PID.TID 0000.0001)                 1.495000000000000E+06,      /* I =150 */
(PID.TID 0000.0001)                 1.505000000000000E+06,      /* I =151 */
(PID.TID 0000.0001)                 1.515000000000000E+06,      /* I =152 */
(PID.TID 0000.0001)                 1.525000000000000E+06,      /* I =153 */
(PID.TID 0000.0001)      . . .
(PID.TID 0000.0001)                 1.975000000000000E+06,      /* I =198 */
(PID.TID 0000.0001)                 1.985000000000000E+06,      /* I =199 */
(PID.TID 0000.0001)                 1.995000000000000E+06       /* I =200 */
(PID.TID 0000.0001)     ;
(PID.TID 0000.0001) yC =  /* yC(1,:,1,:) : P-point Y coord ( deg. or m if cartesian) */
(PID.TID 0000.0001)                 2.177385206136404E+04,      /* J =  1 */
(PID.TID 0000.0001)                 6.342934794037614E+04,      /* J =  2 */
(PID.TID 0000.0001)                 1.025372616579589E+05,      /* J =  3 */
(PID.TID 0000.0001)                 1.384144304300052E+05,      /* J =  4 */
(PID.TID 0000.0001)                 1.675564221104375E+05,      /* J =  5 */
(PID.TID 0000.0001)                 1.892992540974944E+05,      /* J =  6 */
(PID.TID 0000.0001)                 2.059356977504968E+05,      /* J =  7 */
(PID.TID 0000.0001)                 2.196843119709841E+05,      /* J =  8 */
(PID.TID 0000.0001)                 2.318441705120472E+05,      /* J =  9 */
(PID.TID 0000.0001)                 2.431112168150248E+05,      /* J = 10 */
(PID.TID 0000.0001)                 2.538637094961760E+05,      /* J = 11 */
(PID.TID 0000.0001)                 2.643142240014882E+05,      /* J = 12 */
(PID.TID 0000.0001)                 2.745853341928977E+05,      /* J = 13 */
(PID.TID 0000.0001)                 2.847489674121566E+05,      /* J = 14 */
(PID.TID 0000.0001)                 2.948479168120248E+05,      /* J = 15 */
(PID.TID 0000.0001)                 3.049078217898763E+05,      /* J = 16 */
(PID.TID 0000.0001)                 3.149441150281806E+05,      /* J = 17 */
(PID.TID 0000.0001)                 3.249661128781913E+05,      /* J = 18 */
(PID.TID 0000.0001)                 3.349794496802689E+05,      /* J = 19 */
(PID.TID 0000.0001)                 3.449875368090993E+05,      /* J = 20 */
(PID.TID 0000.0001)                 3.549924411458817E+05,      /* J = 21 */
(PID.TID 0000.0001)                 3.649954154987283E+05,      /* J = 22 */
(PID.TID 0000.0001)                 3.749972194327112E+05,      /* J = 23 */
(PID.TID 0000.0001)                 3.849983135363735E+05,      /* J = 24 */
(PID.TID 0000.0001)                 3.949989771299539E+05,      /* J = 25 */
(PID.TID 0000.0001)                 4.049993796147157E+05,      /* J = 26 */
(PID.TID 0000.0001)                 4.149996237321913E+05,      /* J = 27 */
(PID.TID 0000.0001)                 4.249997717962359E+05,      /* J = 28 */
(PID.TID 0000.0001)                 4.349998616013651E+05,      /* J = 29 */
(PID.TID 0000.0001)                 4.449999160708361E+05,      /* J = 30 */
(PID.TID 0000.0001)                 4.549999491082060E+05,      /* J = 31 */
(PID.TID 0000.0001)                 4.649999691463711E+05,      /* J = 32 */
(PID.TID 0000.0001)                 4.749999813001280E+05,      /* J = 33 */
(PID.TID 0000.0001)                 4.849999886717524E+05,      /* J = 34 */
(PID.TID 0000.0001)                 4.949999931428681E+05,      /* J = 35 */
(PID.TID 0000.0001)                 5.049999958547366E+05,      /* J = 36 */
(PID.TID 0000.0001)                 5.149999974995678E+05,      /* J = 37 */
(PID.TID 0000.0001)                 5.249999984972085E+05,      /* J = 38 */
(PID.TID 0000.0001)                 5.349999991023081E+05,      /* J = 39 */
(PID.TID 0000.0001)                 5.449999994693196E+05,      /* J = 40 */
(PID.TID 0000.0001)                 5.549999996919233E+05,      /* J = 41 */
(PID.TID 0000.0001)                 5.649999998269393E+05,      /* J = 42 */
(PID.TID 0000.0001)                 5.749999999088305E+05,      /* J = 43 */
(PID.TID 0000.0001)                 5.849999999585001E+05,      /* J = 44 */
(PID.TID 0000.0001)                 5.949999999886262E+05       /* J = 45 */
(PID.TID 0000.0001)     ;
(PID.TID 0000.0001) rcoord = /* P-point R coordinate (  units of r ) */
(PID.TID 0000.0001)                -7.200000000000000E+01,      /* K =  1 */
(PID.TID 0000.0001)                -2.160000000000000E+02,      /* K =  2 */
(PID.TID 0000.0001)                -3.600000000000000E+02,      /* K =  3 */
(PID.TID 0000.0001)                -5.040000000000000E+02,      /* K =  4 */
(PID.TID 0000.0001)                -6.480000000000000E+02,      /* K =  5 */
(PID.TID 0000.0001)                -7.920000000000000E+02,      /* K =  6 */
(PID.TID 0000.0001)                -9.360000000000000E+02,      /* K =  7 */
(PID.TID 0000.0001)                -1.080000000000000E+03,      /* K =  8 */
(PID.TID 0000.0001)                -1.224000000000000E+03,      /* K =  9 */
(PID.TID 0000.0001)                -1.368000000000000E+03,      /* K = 10 */
(PID.TID 0000.0001)                -1.512000000000000E+03,      /* K = 11 */
(PID.TID 0000.0001)                -1.656000000000000E+03,      /* K = 12 */
(PID.TID 0000.0001)                -1.800000000000000E+03,      /* K = 13 */
(PID.TID 0000.0001)                -1.944000000000000E+03,      /* K = 14 */
(PID.TID 0000.0001)                -2.088000000000000E+03,      /* K = 15 */
(PID.TID 0000.0001)                -2.232000000000000E+03,      /* K = 16 */
(PID.TID 0000.0001)                -2.376000000000000E+03,      /* K = 17 */
(PID.TID 0000.0001)                -2.520000000000000E+03,      /* K = 18 */
(PID.TID 0000.0001)                -2.664000000000000E+03,      /* K = 19 */
(PID.TID 0000.0001)                -2.808000000000000E+03,      /* K = 20 */
(PID.TID 0000.0001)                -2.952000000000000E+03,      /* K = 21 */
(PID.TID 0000.0001)                -3.096000000000000E+03,      /* K = 22 */
(PID.TID 0000.0001)                -3.240000000000000E+03,      /* K = 23 */
(PID.TID 0000.0001)                -3.384000000000000E+03,      /* K = 24 */
(PID.TID 0000.0001)                -3.528000000000000E+03       /* K = 25 */
(PID.TID 0000.0001)     ;
(PID.TID 0000.0001) rF =   /* W-Interf. R coordinate (  units of r ) */
(PID.TID 0000.0001)                 0.000000000000000E+00,      /* K =  1 */
(PID.TID 0000.0001)                -1.440000000000000E+02,      /* K =  2 */
(PID.TID 0000.0001)                -2.880000000000000E+02,      /* K =  3 */
(PID.TID 0000.0001)                -4.320000000000000E+02,      /* K =  4 */
(PID.TID 0000.0001)                -5.760000000000000E+02,      /* K =  5 */
(PID.TID 0000.0001)                -7.200000000000000E+02,      /* K =  6 */
(PID.TID 0000.0001)                -8.640000000000000E+02,      /* K =  7 */
(PID.TID 0000.0001)                -1.008000000000000E+03,      /* K =  8 */
(PID.TID 0000.0001)                -1.152000000000000E+03,      /* K =  9 */
(PID.TID 0000.0001)                -1.296000000000000E+03,      /* K = 10 */
(PID.TID 0000.0001)                -1.440000000000000E+03,      /* K = 11 */
(PID.TID 0000.0001)                -1.584000000000000E+03,      /* K = 12 */
(PID.TID 0000.0001)                -1.728000000000000E+03,      /* K = 13 */
(PID.TID 0000.0001)                -1.872000000000000E+03,      /* K = 14 */
(PID.TID 0000.0001)                -2.016000000000000E+03,      /* K = 15 */
(PID.TID 0000.0001)                -2.160000000000000E+03,      /* K = 16 */
(PID.TID 0000.0001)                -2.304000000000000E+03,      /* K = 17 */
(PID.TID 0000.0001)                -2.448000000000000E+03,      /* K = 18 */
(PID.TID 0000.0001)                -2.592000000000000E+03,      /* K = 19 */
(PID.TID 0000.0001)                -2.736000000000000E+03,      /* K = 20 */
(PID.TID 0000.0001)                -2.880000000000000E+03,      /* K = 21 */
(PID.TID 0000.0001)                -3.024000000000000E+03,      /* K = 22 */
(PID.TID 0000.0001)                -3.168000000000000E+03,      /* K = 23 */
(PID.TID 0000.0001)                -3.312000000000000E+03,      /* K = 24 */
(PID.TID 0000.0001)                -3.456000000000000E+03,      /* K = 25 */
(PID.TID 0000.0001)                -3.600000000000000E+03       /* K = 26 */
(PID.TID 0000.0001)     ;
(PID.TID 0000.0001) deepFacC = /* deep-model grid factor @ cell-Center (-) */
(PID.TID 0000.0001)    25 @  1.000000000000000E+00              /* K =  1: 25 */
(PID.TID 0000.0001)     ;
(PID.TID 0000.0001) deepFacF = /* deep-model grid factor @ W-Interface (-) */
(PID.TID 0000.0001)    26 @  1.000000000000000E+00              /* K =  1: 26 */
(PID.TID 0000.0001)     ;
(PID.TID 0000.0001) rVel2wUnit = /* convert units: rVel -> wSpeed (=1 if z-coord)*/
(PID.TID 0000.0001)    26 @  1.000000000000000E+00              /* K =  1: 26 */
(PID.TID 0000.0001)     ;
(PID.TID 0000.0001) wUnit2rVel = /* convert units: wSpeed -> rVel (=1 if z-coord)*/
(PID.TID 0000.0001)    26 @  1.000000000000000E+00              /* K =  1: 26 */
(PID.TID 0000.0001)     ;
(PID.TID 0000.0001) dBdrRef = /* Vertical grad. of reference buoyancy [(m/s/r)^2] */
(PID.TID 0000.0001)                 0.000000000000000E+00,      /* K =  1 */
(PID.TID 0000.0001)                 5.291255125000001E-06,      /* K =  2 */
(PID.TID 0000.0001)                 5.291268749999999E-06,      /* K =  3 */
(PID.TID 0000.0001)                 5.291214250000001E-06,      /* K =  4 */
(PID.TID 0000.0001)     6 @  5.291268749999999E-06,             /* K =  5: 10 */
(PID.TID 0000.0001)                 5.291268750000005E-06,      /* K = 11 */
(PID.TID 0000.0001)    10 @  5.291268749999999E-06,             /* K = 12: 21 */
(PID.TID 0000.0001)                 5.291132500000005E-06,      /* K = 22 */
(PID.TID 0000.0001)                 5.291268749999987E-06,      /* K = 23 */
(PID.TID 0000.0001)                 5.291268750000011E-06,      /* K = 24 */
(PID.TID 0000.0001)                 5.291268749999987E-06       /* K = 25 */
(PID.TID 0000.0001)     ;
(PID.TID 0000.0001) rotateGrid = /* use rotated grid ( True/False ) */
(PID.TID 0000.0001)                   F
(PID.TID 0000.0001)     ;
(PID.TID 0000.0001) phiEuler = /* Euler angle, rotation about original z-coordinate [rad] */
(PID.TID 0000.0001)                 0.000000000000000E+00
(PID.TID 0000.0001)     ;
(PID.TID 0000.0001) thetaEuler = /* Euler angle, rotation about new x-coordinate [rad] */
(PID.TID 0000.0001)                 0.000000000000000E+00
(PID.TID 0000.0001)     ;
(PID.TID 0000.0001) psiEuler = /* Euler angle, rotation about new z-coordinate [rad] */
(PID.TID 0000.0001)                 0.000000000000000E+00
(PID.TID 0000.0001)     ;
(PID.TID 0000.0001) dxF =  /* dxF(:,1,:,1) ( units: m ) */
(PID.TID 0000.0001)   200 @  1.000000000000000E+04              /* I =  1:200 */
(PID.TID 0000.0001)     ;
(PID.TID 0000.0001) dxF =  /* dxF(1,:,1,:) ( units: m ) */
(PID.TID 0000.0001)    45 @  1.000000000000000E+04              /* J =  1: 45 */
(PID.TID 0000.0001)     ;
(PID.TID 0000.0001) dyF =  /* dyF(:,1,:,1) ( units: m ) */
(PID.TID 0000.0001)   200 @  4.354770412272808E+04              /* I =  1:200 */
(PID.TID 0000.0001)     ;
(PID.TID 0000.0001) dyF =  /* dyF(1,:,1,:) ( units: m ) */
(PID.TID 0000.0001)                 4.354770412272808E+04,      /* J =  1 */
(PID.TID 0000.0001)                 3.976328763529614E+04,      /* J =  2 */
(PID.TID 0000.0001)                 3.845253979986927E+04,      /* J =  3 */
(PID.TID 0000.0001)                 3.330179774422351E+04,      /* J =  4 */
(PID.TID 0000.0001)                 2.498218561664100E+04,      /* J =  5 */
(PID.TID 0000.0001)                 1.850347835747289E+04,      /* J =  6 */
(PID.TID 0000.0001)                 1.476940894853175E+04,      /* J =  7 */
(PID.TID 0000.0001)                 1.272781949244290E+04,      /* J =  8 */
(PID.TID 0000.0001)                 1.159189758968330E+04,      /* J =  9 */
(PID.TID 0000.0001)                 1.094219501627191E+04,      /* J = 10 */
(PID.TID 0000.0001)                 1.056279034603045E+04,      /* J = 11 */
(PID.TID 0000.0001)                 1.033823866459392E+04,      /* J = 12 */
(PID.TID 0000.0001)                 1.020398171822501E+04,      /* J = 13 */
(PID.TID 0000.0001)                 1.012328472029299E+04,      /* J = 14 */
(PID.TID 0000.0001)                 1.007461407944328E+04,      /* J = 15 */
(PID.TID 0000.0001)                 1.004519587625975E+04,      /* J = 16 */
(PID.TID 0000.0001)                 1.002739060034890E+04,      /* J = 17 */
(PID.TID 0000.0001)                 1.001660509967246E+04,      /* J = 18 */
(PID.TID 0000.0001)                 1.001006850448283E+04,      /* J = 19 */
(PID.TID 0000.0001)                 1.000610575317793E+04,      /* J = 20 */
(PID.TID 0000.0001)                 1.000370292038679E+04,      /* J = 21 */
(PID.TID 0000.0001)                 1.000224578530626E+04,      /* J = 22 */
(PID.TID 0000.0001)                 1.000136208265968E+04,      /* J = 23 */
(PID.TID 0000.0001)                 1.000082612466494E+04,      /* J = 24 */
(PID.TID 0000.0001)                 1.000050106249572E+04,      /* J = 25 */
(PID.TID 0000.0001)                 1.000030390702810E+04,      /* J = 26 */
(PID.TID 0000.0001)                 1.000018432792299E+04,      /* J = 27 */
(PID.TID 0000.0001)                 1.000011180016617E+04,      /* J = 28 */
(PID.TID 0000.0001)                 1.000006781009222E+04,      /* J = 29 */
(PID.TID 0000.0001)                 1.000004112884983E+04,      /* J = 30 */
(PID.TID 0000.0001)                 1.000002494588998E+04,      /* J = 31 */
(PID.TID 0000.0001)                 1.000001513044032E+04,      /* J = 32 */
(PID.TID 0000.0001)                 1.000000917707345E+04,      /* J = 33 */
(PID.TID 0000.0001)                 1.000000556617549E+04,      /* J = 34 */
(PID.TID 0000.0001)                 1.000000337605576E+04,      /* J = 35 */
(PID.TID 0000.0001)                 1.000000204768121E+04,      /* J = 36 */
(PID.TID 0000.0001)                 1.000000124198138E+04,      /* J = 37 */
(PID.TID 0000.0001)                 1.000000075329977E+04,      /* J = 38 */
(PID.TID 0000.0001)                 1.000000045689940E+04,      /* J = 39 */
(PID.TID 0000.0001)                 1.000000027712349E+04,      /* J = 40 */
(PID.TID 0000.0001)                 1.000000016808389E+04,      /* J = 41 */
(PID.TID 0000.0001)                 1.000000010194804E+04,      /* J = 42 */
(PID.TID 0000.0001)                 1.000000006183461E+04,      /* J = 43 */
(PID.TID 0000.0001)                 1.000000003750459E+04,      /* J = 44 */
(PID.TID 0000.0001)                 1.000000002274768E+04       /* J = 45 */
(PID.TID 0000.0001)     ;
(PID.TID 0000.0001) dxG =  /* dxG(:,1,:,1) ( units: m ) */
(PID.TID 0000.0001)   200 @  1.000000000000000E+04              /* I =  1:200 */
(PID.TID 0000.0001)     ;
(PID.TID 0000.0001) dxG =  /* dxG(1,:,1,:) ( units: m ) */
(PID.TID 0000.0001)    45 @  1.000000000000000E+04              /* J =  1: 45 */
(PID.TID 0000.0001)     ;
(PID.TID 0000.0001) dyG =  /* dyG(:,1,:,1) ( units: m ) */
(PID.TID 0000.0001)   200 @  4.354770412272808E+04              /* I =  1:200 */
(PID.TID 0000.0001)     ;
(PID.TID 0000.0001) dyG =  /* dyG(1,:,1,:) ( units: m ) */
(PID.TID 0000.0001)                 4.354770412272808E+04,      /* J =  1 */
(PID.TID 0000.0001)                 3.976328763529614E+04,      /* J =  2 */
(PID.TID 0000.0001)                 3.845253979986927E+04,      /* J =  3 */
(PID.TID 0000.0001)                 3.330179774422351E+04,      /* J =  4 */
(PID.TID 0000.0001)                 2.498218561664100E+04,      /* J =  5 */
(PID.TID 0000.0001)                 1.850347835747289E+04,      /* J =  6 */
(PID.TID 0000.0001)                 1.476940894853175E+04,      /* J =  7 */
(PID.TID 0000.0001)                 1.272781949244290E+04,      /* J =  8 */
(PID.TID 0000.0001)                 1.159189758968330E+04,      /* J =  9 */
(PID.TID 0000.0001)                 1.094219501627191E+04,      /* J = 10 */
(PID.TID 0000.0001)                 1.056279034603045E+04,      /* J = 11 */
(PID.TID 0000.0001)                 1.033823866459392E+04,      /* J = 12 */
(PID.TID 0000.0001)                 1.020398171822501E+04,      /* J = 13 */
(PID.TID 0000.0001)                 1.012328472029299E+04,      /* J = 14 */
(PID.TID 0000.0001)                 1.007461407944328E+04,      /* J = 15 */
(PID.TID 0000.0001)                 1.004519587625975E+04,      /* J = 16 */
(PID.TID 0000.0001)                 1.002739060034890E+04,      /* J = 17 */
(PID.TID 0000.0001)                 1.001660509967246E+04,      /* J = 18 */
(PID.TID 0000.0001)                 1.001006850448283E+04,      /* J = 19 */
(PID.TID 0000.0001)                 1.000610575317793E+04,      /* J = 20 */
(PID.TID 0000.0001)                 1.000370292038679E+04,      /* J = 21 */
(PID.TID 0000.0001)                 1.000224578530626E+04,      /* J = 22 */
(PID.TID 0000.0001)                 1.000136208265968E+04,      /* J = 23 */
(PID.TID 0000.0001)                 1.000082612466494E+04,      /* J = 24 */
(PID.TID 0000.0001)                 1.000050106249572E+04,      /* J = 25 */
(PID.TID 0000.0001)                 1.000030390702810E+04,      /* J = 26 */
(PID.TID 0000.0001)                 1.000018432792299E+04,      /* J = 27 */
(PID.TID 0000.0001)                 1.000011180016617E+04,      /* J = 28 */
(PID.TID 0000.0001)                 1.000006781009222E+04,      /* J = 29 */
(PID.TID 0000.0001)                 1.000004112884983E+04,      /* J = 30 */
(PID.TID 0000.0001)                 1.000002494588998E+04,      /* J = 31 */
(PID.TID 0000.0001)                 1.000001513044032E+04,      /* J = 32 */
(PID.TID 0000.0001)                 1.000000917707345E+04,      /* J = 33 */
(PID.TID 0000.0001)                 1.000000556617549E+04,      /* J = 34 */
(PID.TID 0000.0001)                 1.000000337605576E+04,      /* J = 35 */
(PID.TID 0000.0001)                 1.000000204768121E+04,      /* J = 36 */
(PID.TID 0000.0001)                 1.000000124198138E+04,      /* J = 37 */
(PID.TID 0000.0001)                 1.000000075329977E+04,      /* J = 38 */
(PID.TID 0000.0001)                 1.000000045689940E+04,      /* J = 39 */
(PID.TID 0000.0001)                 1.000000027712349E+04,      /* J = 40 */
(PID.TID 0000.0001)                 1.000000016808389E+04,      /* J = 41 */
(PID.TID 0000.0001)                 1.000000010194804E+04,      /* J = 42 */
(PID.TID 0000.0001)                 1.000000006183461E+04,      /* J = 43 */
(PID.TID 0000.0001)                 1.000000003750459E+04,      /* J = 44 */
(PID.TID 0000.0001)                 1.000000002274768E+04       /* J = 45 */
(PID.TID 0000.0001)     ;
(PID.TID 0000.0001) dxC =  /* dxC(:,1,:,1) ( units: m ) */
(PID.TID 0000.0001)   200 @  1.000000000000000E+04              /* I =  1:200 */
(PID.TID 0000.0001)     ;
(PID.TID 0000.0001) dxC =  /* dxC(1,:,1,:) ( units: m ) */
(PID.TID 0000.0001)    45 @  1.000000000000000E+04              /* J =  1: 45 */
(PID.TID 0000.0001)     ;
(PID.TID 0000.0001) dyC =  /* dyC(:,1,:,1) ( units: m ) */
(PID.TID 0000.0001)   200 @  2.677385207273788E+04              /* I =  1:200 */
(PID.TID 0000.0001)     ;
(PID.TID 0000.0001) dyC =  /* dyC(1,:,1,:) ( units: m ) */
(PID.TID 0000.0001)                 2.677385207273788E+04,      /* J =  1 */
(PID.TID 0000.0001)                 4.165549587901211E+04,      /* J =  2 */
(PID.TID 0000.0001)                 3.910791371758271E+04,      /* J =  3 */
(PID.TID 0000.0001)                 3.587716877204639E+04,      /* J =  4 */
(PID.TID 0000.0001)                 2.914199168043226E+04,      /* J =  5 */
(PID.TID 0000.0001)                 2.174283198705695E+04,      /* J =  6 */
(PID.TID 0000.0001)                 1.663644365300232E+04,      /* J =  7 */
(PID.TID 0000.0001)                 1.374861422048732E+04,      /* J =  8 */
(PID.TID 0000.0001)                 1.215985854106310E+04,      /* J =  9 */
(PID.TID 0000.0001)                 1.126704630297760E+04,      /* J = 10 */
(PID.TID 0000.0001)                 1.075249268115118E+04,      /* J = 11 */
(PID.TID 0000.0001)                 1.045051450531219E+04,      /* J = 12 */
(PID.TID 0000.0001)                 1.027111019140946E+04,      /* J = 13 */
(PID.TID 0000.0001)                 1.016363321925900E+04,      /* J = 14 */
(PID.TID 0000.0001)                 1.009894939986813E+04,      /* J = 15 */
(PID.TID 0000.0001)                 1.005990497785152E+04,      /* J = 16 */
(PID.TID 0000.0001)                 1.003629323830432E+04,      /* J = 17 */
(PID.TID 0000.0001)                 1.002199785001068E+04,      /* J = 18 */
(PID.TID 0000.0001)                 1.001333680207765E+04,      /* J = 19 */
(PID.TID 0000.0001)                 1.000808712883038E+04,      /* J = 20 */
(PID.TID 0000.0001)                 1.000490433678236E+04,      /* J = 21 */
(PID.TID 0000.0001)                 1.000297435284652E+04,      /* J = 22 */
(PID.TID 0000.0001)                 1.000180393398297E+04,      /* J = 23 */
(PID.TID 0000.0001)                 1.000109410366231E+04,      /* J = 24 */
(PID.TID 0000.0001)                 1.000066359358033E+04,      /* J = 25 */
(PID.TID 0000.0001)                 1.000040248476191E+04,      /* J = 26 */
(PID.TID 0000.0001)                 1.000024411747555E+04,      /* J = 27 */
(PID.TID 0000.0001)                 1.000014806404458E+04,      /* J = 28 */
(PID.TID 0000.0001)                 1.000008980512919E+04,      /* J = 29 */
(PID.TID 0000.0001)                 1.000005446947102E+04,      /* J = 30 */
(PID.TID 0000.0001)                 1.000003303736990E+04,      /* J = 31 */
(PID.TID 0000.0001)                 1.000002003816515E+04,      /* J = 32 */
(PID.TID 0000.0001)                 1.000001215375688E+04,      /* J = 33 */
(PID.TID 0000.0001)                 1.000000737162447E+04,      /* J = 34 */
(PID.TID 0000.0001)                 1.000000447111562E+04,      /* J = 35 */
(PID.TID 0000.0001)                 1.000000271186848E+04,      /* J = 36 */
(PID.TID 0000.0001)                 1.000000164483129E+04,      /* J = 37 */
(PID.TID 0000.0001)                 1.000000099764058E+04,      /* J = 38 */
(PID.TID 0000.0001)                 1.000000060509959E+04,      /* J = 39 */
(PID.TID 0000.0001)                 1.000000036701145E+04,      /* J = 40 */
(PID.TID 0000.0001)                 1.000000022260369E+04,      /* J = 41 */
(PID.TID 0000.0001)                 1.000000013501597E+04,      /* J = 42 */
(PID.TID 0000.0001)                 1.000000008189132E+04,      /* J = 43 */
(PID.TID 0000.0001)                 1.000000004966960E+04,      /* J = 44 */
(PID.TID 0000.0001)                 1.000000003012614E+04       /* J = 45 */
(PID.TID 0000.0001)     ;
(PID.TID 0000.0001) dxV =  /* dxV(:,1,:,1) ( units: m ) */
(PID.TID 0000.0001)   200 @  1.000000000000000E+04              /* I =  1:200 */
(PID.TID 0000.0001)     ;
(PID.TID 0000.0001) dxV =  /* dxV(1,:,1,:) ( units: m ) */
(PID.TID 0000.0001)    45 @  1.000000000000000E+04              /* J =  1: 45 */
(PID.TID 0000.0001)     ;
(PID.TID 0000.0001) dyU =  /* dyU(:,1,:,1) ( units: m ) */
(PID.TID 0000.0001)   200 @  2.677385207273788E+04              /* I =  1:200 */
(PID.TID 0000.0001)     ;
(PID.TID 0000.0001) dyU =  /* dyU(1,:,1,:) ( units: m ) */
(PID.TID 0000.0001)                 2.677385207273788E+04,      /* J =  1 */
(PID.TID 0000.0001)                 4.165549587901211E+04,      /* J =  2 */
(PID.TID 0000.0001)                 3.910791371758271E+04,      /* J =  3 */
(PID.TID 0000.0001)                 3.587716877204639E+04,      /* J =  4 */
(PID.TID 0000.0001)                 2.914199168043226E+04,      /* J =  5 */
(PID.TID 0000.0001)                 2.174283198705695E+04,      /* J =  6 */
(PID.TID 0000.0001)                 1.663644365300232E+04,      /* J =  7 */
(PID.TID 0000.0001)                 1.374861422048732E+04,      /* J =  8 */
(PID.TID 0000.0001)                 1.215985854106310E+04,      /* J =  9 */
(PID.TID 0000.0001)                 1.126704630297760E+04,      /* J = 10 */
(PID.TID 0000.0001)                 1.075249268115118E+04,      /* J = 11 */
(PID.TID 0000.0001)                 1.045051450531219E+04,      /* J = 12 */
(PID.TID 0000.0001)                 1.027111019140946E+04,      /* J = 13 */
(PID.TID 0000.0001)                 1.016363321925900E+04,      /* J = 14 */
(PID.TID 0000.0001)                 1.009894939986813E+04,      /* J = 15 */
(PID.TID 0000.0001)                 1.005990497785152E+04,      /* J = 16 */
(PID.TID 0000.0001)                 1.003629323830432E+04,      /* J = 17 */
(PID.TID 0000.0001)                 1.002199785001068E+04,      /* J = 18 */
(PID.TID 0000.0001)                 1.001333680207765E+04,      /* J = 19 */
(PID.TID 0000.0001)                 1.000808712883038E+04,      /* J = 20 */
(PID.TID 0000.0001)                 1.000490433678236E+04,      /* J = 21 */
(PID.TID 0000.0001)                 1.000297435284652E+04,      /* J = 22 */
(PID.TID 0000.0001)                 1.000180393398297E+04,      /* J = 23 */
(PID.TID 0000.0001)                 1.000109410366231E+04,      /* J = 24 */
(PID.TID 0000.0001)                 1.000066359358033E+04,      /* J = 25 */
(PID.TID 0000.0001)                 1.000040248476191E+04,      /* J = 26 */
(PID.TID 0000.0001)                 1.000024411747555E+04,      /* J = 27 */
(PID.TID 0000.0001)                 1.000014806404458E+04,      /* J = 28 */
(PID.TID 0000.0001)                 1.000008980512919E+04,      /* J = 29 */
(PID.TID 0000.0001)                 1.000005446947102E+04,      /* J = 30 */
(PID.TID 0000.0001)                 1.000003303736990E+04,      /* J = 31 */
(PID.TID 0000.0001)                 1.000002003816515E+04,      /* J = 32 */
(PID.TID 0000.0001)                 1.000001215375688E+04,      /* J = 33 */
(PID.TID 0000.0001)                 1.000000737162447E+04,      /* J = 34 */
(PID.TID 0000.0001)                 1.000000447111562E+04,      /* J = 35 */
(PID.TID 0000.0001)                 1.000000271186848E+04,      /* J = 36 */
(PID.TID 0000.0001)                 1.000000164483129E+04,      /* J = 37 */
(PID.TID 0000.0001)                 1.000000099764058E+04,      /* J = 38 */
(PID.TID 0000.0001)                 1.000000060509959E+04,      /* J = 39 */
(PID.TID 0000.0001)                 1.000000036701145E+04,      /* J = 40 */
(PID.TID 0000.0001)                 1.000000022260369E+04,      /* J = 41 */
(PID.TID 0000.0001)                 1.000000013501597E+04,      /* J = 42 */
(PID.TID 0000.0001)                 1.000000008189132E+04,      /* J = 43 */
(PID.TID 0000.0001)                 1.000000004966960E+04,      /* J = 44 */
(PID.TID 0000.0001)                 1.000000003012614E+04       /* J = 45 */
(PID.TID 0000.0001)     ;
(PID.TID 0000.0001) rA  =  /* rA (:,1,:,1) ( units: m^2 ) */
(PID.TID 0000.0001)   200 @  4.354770412272808E+08              /* I =  1:200 */
(PID.TID 0000.0001)     ;
(PID.TID 0000.0001) rA  =  /* rA (1,:,1,:) ( units: m^2 ) */
(PID.TID 0000.0001)                 4.354770412272808E+08,      /* J =  1 */
(PID.TID 0000.0001)                 3.976328763529614E+08,      /* J =  2 */
(PID.TID 0000.0001)                 3.845253979986927E+08,      /* J =  3 */
(PID.TID 0000.0001)                 3.330179774422351E+08,      /* J =  4 */
(PID.TID 0000.0001)                 2.498218561664100E+08,      /* J =  5 */
(PID.TID 0000.0001)                 1.850347835747289E+08,      /* J =  6 */
(PID.TID 0000.0001)                 1.476940894853175E+08,      /* J =  7 */
(PID.TID 0000.0001)                 1.272781949244290E+08,      /* J =  8 */
(PID.TID 0000.0001)                 1.159189758968330E+08,      /* J =  9 */
(PID.TID 0000.0001)                 1.094219501627191E+08,      /* J = 10 */
(PID.TID 0000.0001)                 1.056279034603045E+08,      /* J = 11 */
(PID.TID 0000.0001)                 1.033823866459392E+08,      /* J = 12 */
(PID.TID 0000.0001)                 1.020398171822501E+08,      /* J = 13 */
(PID.TID 0000.0001)                 1.012328472029299E+08,      /* J = 14 */
(PID.TID 0000.0001)                 1.007461407944328E+08,      /* J = 15 */
(PID.TID 0000.0001)                 1.004519587625975E+08,      /* J = 16 */
(PID.TID 0000.0001)                 1.002739060034890E+08,      /* J = 17 */
(PID.TID 0000.0001)                 1.001660509967246E+08,      /* J = 18 */
(PID.TID 0000.0001)                 1.001006850448283E+08,      /* J = 19 */
(PID.TID 0000.0001)                 1.000610575317793E+08,      /* J = 20 */
(PID.TID 0000.0001)                 1.000370292038679E+08,      /* J = 21 */
(PID.TID 0000.0001)                 1.000224578530626E+08,      /* J = 22 */
(PID.TID 0000.0001)                 1.000136208265968E+08,      /* J = 23 */
(PID.TID 0000.0001)                 1.000082612466494E+08,      /* J = 24 */
(PID.TID 0000.0001)                 1.000050106249572E+08,      /* J = 25 */
(PID.TID 0000.0001)                 1.000030390702810E+08,      /* J = 26 */
(PID.TID 0000.0001)                 1.000018432792299E+08,      /* J = 27 */
(PID.TID 0000.0001)                 1.000011180016617E+08,      /* J = 28 */
(PID.TID 0000.0001)                 1.000006781009222E+08,      /* J = 29 */
(PID.TID 0000.0001)                 1.000004112884983E+08,      /* J = 30 */
(PID.TID 0000.0001)                 1.000002494588998E+08,      /* J = 31 */
(PID.TID 0000.0001)                 1.000001513044032E+08,      /* J = 32 */
(PID.TID 0000.0001)                 1.000000917707345E+08,      /* J = 33 */
(PID.TID 0000.0001)                 1.000000556617549E+08,      /* J = 34 */
(PID.TID 0000.0001)                 1.000000337605576E+08,      /* J = 35 */
(PID.TID 0000.0001)                 1.000000204768121E+08,      /* J = 36 */
(PID.TID 0000.0001)                 1.000000124198138E+08,      /* J = 37 */
(PID.TID 0000.0001)                 1.000000075329977E+08,      /* J = 38 */
(PID.TID 0000.0001)                 1.000000045689940E+08,      /* J = 39 */
(PID.TID 0000.0001)                 1.000000027712349E+08,      /* J = 40 */
(PID.TID 0000.0001)                 1.000000016808389E+08,      /* J = 41 */
(PID.TID 0000.0001)                 1.000000010194803E+08,      /* J = 42 */
(PID.TID 0000.0001)                 1.000000006183461E+08,      /* J = 43 */
(PID.TID 0000.0001)                 1.000000003750459E+08,      /* J = 44 */
(PID.TID 0000.0001)                 1.000000002274768E+08       /* J = 45 */
(PID.TID 0000.0001)     ;
(PID.TID 0000.0001) rAw =  /* rAw(:,1,:,1) ( units: m^2 ) */
(PID.TID 0000.0001)   200 @  4.354770412272808E+08              /* I =  1:200 */
(PID.TID 0000.0001)     ;
(PID.TID 0000.0001) rAw =  /* rAw(1,:,1,:) ( units: m^2 ) */
(PID.TID 0000.0001)                 4.354770412272808E+08,      /* J =  1 */
(PID.TID 0000.0001)                 3.976328763529614E+08,      /* J =  2 */
(PID.TID 0000.0001)                 3.845253979986927E+08,      /* J =  3 */
(PID.TID 0000.0001)                 3.330179774422351E+08,      /* J =  4 */
(PID.TID 0000.0001)                 2.498218561664100E+08,      /* J =  5 */
(PID.TID 0000.0001)                 1.850347835747289E+08,      /* J =  6 */
(PID.TID 0000.0001)                 1.476940894853175E+08,      /* J =  7 */
(PID.TID 0000.0001)                 1.272781949244290E+08,      /* J =  8 */
(PID.TID 0000.0001)                 1.159189758968330E+08,      /* J =  9 */
(PID.TID 0000.0001)                 1.094219501627191E+08,      /* J = 10 */
(PID.TID 0000.0001)                 1.056279034603045E+08,      /* J = 11 */
(PID.TID 0000.0001)                 1.033823866459392E+08,      /* J = 12 */
(PID.TID 0000.0001)                 1.020398171822501E+08,      /* J = 13 */
(PID.TID 0000.0001)                 1.012328472029299E+08,      /* J = 14 */
(PID.TID 0000.0001)                 1.007461407944328E+08,      /* J = 15 */
(PID.TID 0000.0001)                 1.004519587625975E+08,      /* J = 16 */
(PID.TID 0000.0001)                 1.002739060034890E+08,      /* J = 17 */
(PID.TID 0000.0001)                 1.001660509967246E+08,      /* J = 18 */
(PID.TID 0000.0001)                 1.001006850448283E+08,      /* J = 19 */
(PID.TID 0000.0001)                 1.000610575317793E+08,      /* J = 20 */
(PID.TID 0000.0001)                 1.000370292038679E+08,      /* J = 21 */
(PID.TID 0000.0001)                 1.000224578530626E+08,      /* J = 22 */
(PID.TID 0000.0001)                 1.000136208265968E+08,      /* J = 23 */
(PID.TID 0000.0001)                 1.000082612466494E+08,      /* J = 24 */
(PID.TID 0000.0001)                 1.000050106249572E+08,      /* J = 25 */
(PID.TID 0000.0001)                 1.000030390702810E+08,      /* J = 26 */
(PID.TID 0000.0001)                 1.000018432792299E+08,      /* J = 27 */
(PID.TID 0000.0001)                 1.000011180016617E+08,      /* J = 28 */
(PID.TID 0000.0001)                 1.000006781009222E+08,      /* J = 29 */
(PID.TID 0000.0001)                 1.000004112884983E+08,      /* J = 30 */
(PID.TID 0000.0001)                 1.000002494588998E+08,      /* J = 31 */
(PID.TID 0000.0001)                 1.000001513044032E+08,      /* J = 32 */
(PID.TID 0000.0001)                 1.000000917707345E+08,      /* J = 33 */
(PID.TID 0000.0001)                 1.000000556617549E+08,      /* J = 34 */
(PID.TID 0000.0001)                 1.000000337605576E+08,      /* J = 35 */
(PID.TID 0000.0001)                 1.000000204768121E+08,      /* J = 36 */
(PID.TID 0000.0001)                 1.000000124198138E+08,      /* J = 37 */
(PID.TID 0000.0001)                 1.000000075329977E+08,      /* J = 38 */
(PID.TID 0000.0001)                 1.000000045689940E+08,      /* J = 39 */
(PID.TID 0000.0001)                 1.000000027712349E+08,      /* J = 40 */
(PID.TID 0000.0001)                 1.000000016808389E+08,      /* J = 41 */
(PID.TID 0000.0001)                 1.000000010194803E+08,      /* J = 42 */
(PID.TID 0000.0001)                 1.000000006183461E+08,      /* J = 43 */
(PID.TID 0000.0001)                 1.000000003750459E+08,      /* J = 44 */
(PID.TID 0000.0001)                 1.000000002274768E+08       /* J = 45 */
(PID.TID 0000.0001)     ;
(PID.TID 0000.0001) rAs =  /* rAs(:,1,:,1) ( units: m^2 ) */
(PID.TID 0000.0001)   200 @  2.677385207273788E+08              /* I =  1:200 */
(PID.TID 0000.0001)     ;
(PID.TID 0000.0001) rAs =  /* rAs(1,:,1,:) ( units: m^2 ) */
(PID.TID 0000.0001)                 2.677385207273788E+08,      /* J =  1 */
(PID.TID 0000.0001)                 4.165549587901211E+08,      /* J =  2 */
(PID.TID 0000.0001)                 3.910791371758270E+08,      /* J =  3 */
(PID.TID 0000.0001)                 3.587716877204639E+08,      /* J =  4 */
(PID.TID 0000.0001)                 2.914199168043225E+08,      /* J =  5 */
(PID.TID 0000.0001)                 2.174283198705695E+08,      /* J =  6 */
(PID.TID 0000.0001)                 1.663644365300232E+08,      /* J =  7 */
(PID.TID 0000.0001)                 1.374861422048733E+08,      /* J =  8 */
(PID.TID 0000.0001)                 1.215985854106310E+08,      /* J =  9 */
(PID.TID 0000.0001)                 1.126704630297760E+08,      /* J = 10 */
(PID.TID 0000.0001)                 1.075249268115118E+08,      /* J = 11 */
(PID.TID 0000.0001)                 1.045051450531218E+08,      /* J = 12 */
(PID.TID 0000.0001)                 1.027111019140946E+08,      /* J = 13 */
(PID.TID 0000.0001)                 1.016363321925900E+08,      /* J = 14 */
(PID.TID 0000.0001)                 1.009894939986813E+08,      /* J = 15 */
(PID.TID 0000.0001)                 1.005990497785152E+08,      /* J = 16 */
(PID.TID 0000.0001)                 1.003629323830432E+08,      /* J = 17 */
(PID.TID 0000.0001)                 1.002199785001068E+08,      /* J = 18 */
(PID.TID 0000.0001)                 1.001333680207765E+08,      /* J = 19 */
(PID.TID 0000.0001)                 1.000808712883038E+08,      /* J = 20 */
(PID.TID 0000.0001)                 1.000490433678236E+08,      /* J = 21 */
(PID.TID 0000.0001)                 1.000297435284652E+08,      /* J = 22 */
(PID.TID 0000.0001)                 1.000180393398297E+08,      /* J = 23 */
(PID.TID 0000.0001)                 1.000109410366231E+08,      /* J = 24 */
(PID.TID 0000.0001)                 1.000066359358033E+08,      /* J = 25 */
(PID.TID 0000.0001)                 1.000040248476191E+08,      /* J = 26 */
(PID.TID 0000.0001)                 1.000024411747555E+08,      /* J = 27 */
(PID.TID 0000.0001)                 1.000014806404458E+08,      /* J = 28 */
(PID.TID 0000.0001)                 1.000008980512919E+08,      /* J = 29 */
(PID.TID 0000.0001)                 1.000005446947102E+08,      /* J = 30 */
(PID.TID 0000.0001)                 1.000003303736990E+08,      /* J = 31 */
(PID.TID 0000.0001)                 1.000002003816515E+08,      /* J = 32 */
(PID.TID 0000.0001)                 1.000001215375689E+08,      /* J = 33 */
(PID.TID 0000.0001)                 1.000000737162447E+08,      /* J = 34 */
(PID.TID 0000.0001)                 1.000000447111562E+08,      /* J = 35 */
(PID.TID 0000.0001)                 1.000000271186848E+08,      /* J = 36 */
(PID.TID 0000.0001)                 1.000000164483129E+08,      /* J = 37 */
(PID.TID 0000.0001)                 1.000000099764058E+08,      /* J = 38 */
(PID.TID 0000.0001)                 1.000000060509959E+08,      /* J = 39 */
(PID.TID 0000.0001)                 1.000000036701145E+08,      /* J = 40 */
(PID.TID 0000.0001)                 1.000000022260369E+08,      /* J = 41 */
(PID.TID 0000.0001)                 1.000000013501597E+08,      /* J = 42 */
(PID.TID 0000.0001)                 1.000000008189132E+08,      /* J = 43 */
(PID.TID 0000.0001)                 1.000000004966960E+08,      /* J = 44 */
(PID.TID 0000.0001)                 1.000000003012614E+08       /* J = 45 */
(PID.TID 0000.0001)     ;
(PID.TID 0000.0001) globalArea = /* Integrated horizontal Area (m^2) */
(PID.TID 0000.0001)                 1.006775545097542E+12
(PID.TID 0000.0001)     ;
(PID.TID 0000.0001) // =======================================================
(PID.TID 0000.0001) // End of Model config. summary
(PID.TID 0000.0001) // =======================================================
(PID.TID 0000.0001) 
(PID.TID 0000.0001) == Packages configuration : Check & print summary ==
(PID.TID 0000.0001) 
(PID.TID 0000.0001) OBCS_CHECK: #define ALLOW_OBCS
(PID.TID 0000.0001) OBCS_CHECK: start summary:
(PID.TID 0000.0001) useOBCSbalance = /* balance the flow through OB */
(PID.TID 0000.0001)                   T
(PID.TID 0000.0001)     ;
(PID.TID 0000.0001) OBCS_balanceFacN = /* Northern OB Factor for balancing OB flow [-] */
(PID.TID 0000.0001)                 0.000000000000000E+00
(PID.TID 0000.0001)     ;
(PID.TID 0000.0001) OBCS_balanceFacS = /* Southern OB Factor for balancing OB flow [-] */
(PID.TID 0000.0001)                 1.000000000000000E+00
(PID.TID 0000.0001)     ;
(PID.TID 0000.0001) OBCS_balanceFacE = /* Eastern  OB Factor for balancing OB flow [-] */
(PID.TID 0000.0001)                 1.000000000000000E+00
(PID.TID 0000.0001)     ;
(PID.TID 0000.0001) OBCS_balanceFacW = /* Western  OB Factor for balancing OB flow [-] */
(PID.TID 0000.0001)                 1.000000000000000E+00
(PID.TID 0000.0001)     ;
(PID.TID 0000.0001) OBCS_uvApplyFac = /* Factor to apply to U,V 2nd column/row */
(PID.TID 0000.0001)                 1.000000000000000E+00
(PID.TID 0000.0001)     ;
(PID.TID 0000.0001) OBCS_monitorFreq = /* monitor output frequency [s] */
(PID.TID 0000.0001)                 3.000000000000000E+03
(PID.TID 0000.0001)     ;
(PID.TID 0000.0001) OBCS_monSelect = /* select group of variables to monitor */
(PID.TID 0000.0001)                       0
(PID.TID 0000.0001)     ;
(PID.TID 0000.0001) ======== Tile bi=   1 , bj=   1 ========
(PID.TID 0000.0001)  OB_Jn = /* Northern OB local indices */
(PID.TID 0000.0001)    31 @        0                            /* I = -2: 28 */
(PID.TID 0000.0001)  OB_Js = /* Southern OB local indices */
(PID.TID 0000.0001)    31 @        0                            /* I = -2: 28 */
(PID.TID 0000.0001)  OB_Ie = /* Eastern OB local indices */
(PID.TID 0000.0001)    21 @        0                            /* J = -2: 18 */
(PID.TID 0000.0001)  OB_Iw = /* Western OB local indices */
(PID.TID 0000.0001)    21 @        1                            /* J = -2: 18 */
(PID.TID 0000.0001) ======== Tile bi=   2 , bj=   1 ========
(PID.TID 0000.0001)  OB_Jn = /* Northern OB local indices */
(PID.TID 0000.0001)    31 @        0                            /* I = -2: 28 */
(PID.TID 0000.0001)  OB_Js = /* Southern OB local indices */
(PID.TID 0000.0001)    31 @        0                            /* I = -2: 28 */
(PID.TID 0000.0001)  OB_Ie = /* Eastern OB local indices */
(PID.TID 0000.0001)    21 @        0                            /* J = -2: 18 */
(PID.TID 0000.0001)  OB_Iw = /* Western OB local indices */
(PID.TID 0000.0001)    21 @        0                            /* J = -2: 18 */
(PID.TID 0000.0001) ======== Tile bi=   3 , bj=   1 ========
(PID.TID 0000.0001)  OB_Jn = /* Northern OB local indices */
(PID.TID 0000.0001)    31 @        0                            /* I = -2: 28 */
(PID.TID 0000.0001)  OB_Js = /* Southern OB local indices */
(PID.TID 0000.0001)    31 @        0                            /* I = -2: 28 */
(PID.TID 0000.0001)  OB_Ie = /* Eastern OB local indices */
(PID.TID 0000.0001)    21 @        0                            /* J = -2: 18 */
(PID.TID 0000.0001)  OB_Iw = /* Western OB local indices */
(PID.TID 0000.0001)    21 @        0                            /* J = -2: 18 */
(PID.TID 0000.0001) ======== Tile bi=   4 , bj=   1 ========
(PID.TID 0000.0001)  OB_Jn = /* Northern OB local indices */
(PID.TID 0000.0001)    31 @        0                            /* I = -2: 28 */
(PID.TID 0000.0001)  OB_Js = /* Southern OB local indices */
(PID.TID 0000.0001)    31 @        0                            /* I = -2: 28 */
(PID.TID 0000.0001)  OB_Ie = /* Eastern OB local indices */
(PID.TID 0000.0001)    21 @        0                            /* J = -2: 18 */
(PID.TID 0000.0001)  OB_Iw = /* Western OB local indices */
(PID.TID 0000.0001)    21 @        0                            /* J = -2: 18 */
(PID.TID 0000.0001) ======== Tile bi=   5 , bj=   1 ========
(PID.TID 0000.0001)  OB_Jn = /* Northern OB local indices */
(PID.TID 0000.0001)    31 @        0                            /* I = -2: 28 */
(PID.TID 0000.0001)  OB_Js = /* Southern OB local indices */
(PID.TID 0000.0001)    31 @        0                            /* I = -2: 28 */
(PID.TID 0000.0001)  OB_Ie = /* Eastern OB local indices */
(PID.TID 0000.0001)    21 @        0                            /* J = -2: 18 */
(PID.TID 0000.0001)  OB_Iw = /* Western OB local indices */
(PID.TID 0000.0001)    21 @        0                            /* J = -2: 18 */
(PID.TID 0000.0001) ======== Tile bi=   6 , bj=   1 ========
(PID.TID 0000.0001)  OB_Jn = /* Northern OB local indices */
(PID.TID 0000.0001)    31 @        0                            /* I = -2: 28 */
(PID.TID 0000.0001)  OB_Js = /* Southern OB local indices */
(PID.TID 0000.0001)    31 @        0                            /* I = -2: 28 */
(PID.TID 0000.0001)  OB_Ie = /* Eastern OB local indices */
(PID.TID 0000.0001)    21 @        0                            /* J = -2: 18 */
(PID.TID 0000.0001)  OB_Iw = /* Western OB local indices */
(PID.TID 0000.0001)    21 @        0                            /* J = -2: 18 */
(PID.TID 0000.0001) ======== Tile bi=   7 , bj=   1 ========
(PID.TID 0000.0001)  OB_Jn = /* Northern OB local indices */
(PID.TID 0000.0001)    31 @        0                            /* I = -2: 28 */
(PID.TID 0000.0001)  OB_Js = /* Southern OB local indices */
(PID.TID 0000.0001)    31 @        0                            /* I = -2: 28 */
(PID.TID 0000.0001)  OB_Ie = /* Eastern OB local indices */
(PID.TID 0000.0001)    21 @        0                            /* J = -2: 18 */
(PID.TID 0000.0001)  OB_Iw = /* Western OB local indices */
(PID.TID 0000.0001)    21 @        0                            /* J = -2: 18 */
(PID.TID 0000.0001) ======== Tile bi=   8 , bj=   1 ========
(PID.TID 0000.0001)  OB_Jn = /* Northern OB local indices */
(PID.TID 0000.0001)    31 @        0                            /* I = -2: 28 */
(PID.TID 0000.0001)  OB_Js = /* Southern OB local indices */
(PID.TID 0000.0001)    31 @        0                            /* I = -2: 28 */
(PID.TID 0000.0001)  OB_Ie = /* Eastern OB local indices */
(PID.TID 0000.0001)    21 @        0                            /* J = -2: 18 */
(PID.TID 0000.0001)  OB_Iw = /* Western OB local indices */
(PID.TID 0000.0001)    21 @        0                            /* J = -2: 18 */
(PID.TID 0000.0001) ======== Tile bi=   1 , bj=   2 ========
(PID.TID 0000.0001)  OB_Jn = /* Northern OB local indices */
(PID.TID 0000.0001)    31 @        0                            /* I = -2: 28 */
(PID.TID 0000.0001)  OB_Js = /* Southern OB local indices */
(PID.TID 0000.0001)    31 @        0                            /* I = -2: 28 */
(PID.TID 0000.0001)  OB_Ie = /* Eastern OB local indices */
(PID.TID 0000.0001)    21 @        0                            /* J = -2: 18 */
(PID.TID 0000.0001)  OB_Iw = /* Western OB local indices */
(PID.TID 0000.0001)    21 @        1                            /* J = -2: 18 */
(PID.TID 0000.0001) ======== Tile bi=   2 , bj=   2 ========
(PID.TID 0000.0001)  OB_Jn = /* Northern OB local indices */
(PID.TID 0000.0001)    31 @        0                            /* I = -2: 28 */
(PID.TID 0000.0001)  OB_Js = /* Southern OB local indices */
(PID.TID 0000.0001)    31 @        0                            /* I = -2: 28 */
(PID.TID 0000.0001)  OB_Ie = /* Eastern OB local indices */
(PID.TID 0000.0001)    21 @        0                            /* J = -2: 18 */
(PID.TID 0000.0001)  OB_Iw = /* Western OB local indices */
(PID.TID 0000.0001)    21 @        0                            /* J = -2: 18 */
(PID.TID 0000.0001) ======== Tile bi=   3 , bj=   2 ========
(PID.TID 0000.0001)  OB_Jn = /* Northern OB local indices */
(PID.TID 0000.0001)    31 @        0                            /* I = -2: 28 */
(PID.TID 0000.0001)  OB_Js = /* Southern OB local indices */
(PID.TID 0000.0001)    31 @        0                            /* I = -2: 28 */
(PID.TID 0000.0001)  OB_Ie = /* Eastern OB local indices */
(PID.TID 0000.0001)    21 @        0                            /* J = -2: 18 */
(PID.TID 0000.0001)  OB_Iw = /* Western OB local indices */
(PID.TID 0000.0001)    21 @        0                            /* J = -2: 18 */
(PID.TID 0000.0001) ======== Tile bi=   4 , bj=   2 ========
(PID.TID 0000.0001)  OB_Jn = /* Northern OB local indices */
(PID.TID 0000.0001)    31 @        0                            /* I = -2: 28 */
(PID.TID 0000.0001)  OB_Js = /* Southern OB local indices */
(PID.TID 0000.0001)    31 @        0                            /* I = -2: 28 */
(PID.TID 0000.0001)  OB_Ie = /* Eastern OB local indices */
(PID.TID 0000.0001)    21 @        0                            /* J = -2: 18 */
(PID.TID 0000.0001)  OB_Iw = /* Western OB local indices */
(PID.TID 0000.0001)    21 @        0                            /* J = -2: 18 */
(PID.TID 0000.0001) ======== Tile bi=   5 , bj=   2 ========
(PID.TID 0000.0001)  OB_Jn = /* Northern OB local indices */
(PID.TID 0000.0001)    31 @        0                            /* I = -2: 28 */
(PID.TID 0000.0001)  OB_Js = /* Southern OB local indices */
(PID.TID 0000.0001)    31 @        0                            /* I = -2: 28 */
(PID.TID 0000.0001)  OB_Ie = /* Eastern OB local indices */
(PID.TID 0000.0001)    21 @        0                            /* J = -2: 18 */
(PID.TID 0000.0001)  OB_Iw = /* Western OB local indices */
(PID.TID 0000.0001)    21 @        0                            /* J = -2: 18 */
(PID.TID 0000.0001) ======== Tile bi=   6 , bj=   2 ========
(PID.TID 0000.0001)  OB_Jn = /* Northern OB local indices */
(PID.TID 0000.0001)    31 @        0                            /* I = -2: 28 */
(PID.TID 0000.0001)  OB_Js = /* Southern OB local indices */
(PID.TID 0000.0001)    31 @        0                            /* I = -2: 28 */
(PID.TID 0000.0001)  OB_Ie = /* Eastern OB local indices */
(PID.TID 0000.0001)    21 @        0                            /* J = -2: 18 */
(PID.TID 0000.0001)  OB_Iw = /* Western OB local indices */
(PID.TID 0000.0001)    21 @        0                            /* J = -2: 18 */
(PID.TID 0000.0001) ======== Tile bi=   7 , bj=   2 ========
(PID.TID 0000.0001)  OB_Jn = /* Northern OB local indices */
(PID.TID 0000.0001)    31 @        0                            /* I = -2: 28 */
(PID.TID 0000.0001)  OB_Js = /* Southern OB local indices */
(PID.TID 0000.0001)    31 @        0                            /* I = -2: 28 */
(PID.TID 0000.0001)  OB_Ie = /* Eastern OB local indices */
(PID.TID 0000.0001)    21 @        0                            /* J = -2: 18 */
(PID.TID 0000.0001)  OB_Iw = /* Western OB local indices */
(PID.TID 0000.0001)    21 @        0                            /* J = -2: 18 */
(PID.TID 0000.0001) ======== Tile bi=   8 , bj=   2 ========
(PID.TID 0000.0001)  OB_Jn = /* Northern OB local indices */
(PID.TID 0000.0001)    31 @        0                            /* I = -2: 28 */
(PID.TID 0000.0001)  OB_Js = /* Southern OB local indices */
(PID.TID 0000.0001)    31 @        0                            /* I = -2: 28 */
(PID.TID 0000.0001)  OB_Ie = /* Eastern OB local indices */
(PID.TID 0000.0001)    21 @        0                            /* J = -2: 18 */
(PID.TID 0000.0001)  OB_Iw = /* Western OB local indices */
(PID.TID 0000.0001)    21 @        0                            /* J = -2: 18 */
(PID.TID 0000.0001) ======== Tile bi=   1 , bj=   3 ========
(PID.TID 0000.0001)  OB_Jn = /* Northern OB local indices */
(PID.TID 0000.0001)    31 @       15                            /* I = -2: 28 */
(PID.TID 0000.0001)  OB_Js = /* Southern OB local indices */
(PID.TID 0000.0001)    31 @        0                            /* I = -2: 28 */
(PID.TID 0000.0001)  OB_Ie = /* Eastern OB local indices */
(PID.TID 0000.0001)    21 @        0                            /* J = -2: 18 */
(PID.TID 0000.0001)  OB_Iw = /* Western OB local indices */
(PID.TID 0000.0001)    21 @        1                            /* J = -2: 18 */
(PID.TID 0000.0001) ======== Tile bi=   2 , bj=   3 ========
(PID.TID 0000.0001)  OB_Jn = /* Northern OB local indices */
(PID.TID 0000.0001)    31 @       15                            /* I = -2: 28 */
(PID.TID 0000.0001)  OB_Js = /* Southern OB local indices */
(PID.TID 0000.0001)    31 @        0                            /* I = -2: 28 */
(PID.TID 0000.0001)  OB_Ie = /* Eastern OB local indices */
(PID.TID 0000.0001)    21 @        0                            /* J = -2: 18 */
(PID.TID 0000.0001)  OB_Iw = /* Western OB local indices */
(PID.TID 0000.0001)    21 @        0                            /* J = -2: 18 */
(PID.TID 0000.0001) ======== Tile bi=   3 , bj=   3 ========
(PID.TID 0000.0001)  OB_Jn = /* Northern OB local indices */
(PID.TID 0000.0001)    31 @       15                            /* I = -2: 28 */
(PID.TID 0000.0001)  OB_Js = /* Southern OB local indices */
(PID.TID 0000.0001)    31 @        0                            /* I = -2: 28 */
(PID.TID 0000.0001)  OB_Ie = /* Eastern OB local indices */
(PID.TID 0000.0001)    21 @        0                            /* J = -2: 18 */
(PID.TID 0000.0001)  OB_Iw = /* Western OB local indices */
(PID.TID 0000.0001)    21 @        0                            /* J = -2: 18 */
(PID.TID 0000.0001) ======== Tile bi=   4 , bj=   3 ========
(PID.TID 0000.0001)  OB_Jn = /* Northern OB local indices */
(PID.TID 0000.0001)    31 @       15                            /* I = -2: 28 */
(PID.TID 0000.0001)  OB_Js = /* Southern OB local indices */
(PID.TID 0000.0001)    31 @        0                            /* I = -2: 28 */
(PID.TID 0000.0001)  OB_Ie = /* Eastern OB local indices */
(PID.TID 0000.0001)    21 @        0                            /* J = -2: 18 */
(PID.TID 0000.0001)  OB_Iw = /* Western OB local indices */
(PID.TID 0000.0001)    21 @        0                            /* J = -2: 18 */
(PID.TID 0000.0001) ======== Tile bi=   5 , bj=   3 ========
(PID.TID 0000.0001)  OB_Jn = /* Northern OB local indices */
(PID.TID 0000.0001)    31 @       15                            /* I = -2: 28 */
(PID.TID 0000.0001)  OB_Js = /* Southern OB local indices */
(PID.TID 0000.0001)    31 @        0                            /* I = -2: 28 */
(PID.TID 0000.0001)  OB_Ie = /* Eastern OB local indices */
(PID.TID 0000.0001)    21 @        0                            /* J = -2: 18 */
(PID.TID 0000.0001)  OB_Iw = /* Western OB local indices */
(PID.TID 0000.0001)    21 @        0                            /* J = -2: 18 */
(PID.TID 0000.0001) ======== Tile bi=   6 , bj=   3 ========
(PID.TID 0000.0001)  OB_Jn = /* Northern OB local indices */
(PID.TID 0000.0001)    31 @       15                            /* I = -2: 28 */
(PID.TID 0000.0001)  OB_Js = /* Southern OB local indices */
(PID.TID 0000.0001)    31 @        0                            /* I = -2: 28 */
(PID.TID 0000.0001)  OB_Ie = /* Eastern OB local indices */
(PID.TID 0000.0001)    21 @        0                            /* J = -2: 18 */
(PID.TID 0000.0001)  OB_Iw = /* Western OB local indices */
(PID.TID 0000.0001)    21 @        0                            /* J = -2: 18 */
(PID.TID 0000.0001) ======== Tile bi=   7 , bj=   3 ========
(PID.TID 0000.0001)  OB_Jn = /* Northern OB local indices */
(PID.TID 0000.0001)    31 @       15                            /* I = -2: 28 */
(PID.TID 0000.0001)  OB_Js = /* Southern OB local indices */
(PID.TID 0000.0001)    31 @        0                            /* I = -2: 28 */
(PID.TID 0000.0001)  OB_Ie = /* Eastern OB local indices */
(PID.TID 0000.0001)    21 @        0                            /* J = -2: 18 */
(PID.TID 0000.0001)  OB_Iw = /* Western OB local indices */
(PID.TID 0000.0001)    21 @        0                            /* J = -2: 18 */
(PID.TID 0000.0001) ======== Tile bi=   8 , bj=   3 ========
(PID.TID 0000.0001)  OB_Jn = /* Northern OB local indices */
(PID.TID 0000.0001)    31 @       15                            /* I = -2: 28 */
(PID.TID 0000.0001)  OB_Js = /* Southern OB local indices */
(PID.TID 0000.0001)    31 @        0                            /* I = -2: 28 */
(PID.TID 0000.0001)  OB_Ie = /* Eastern OB local indices */
(PID.TID 0000.0001)    21 @        0                            /* J = -2: 18 */
(PID.TID 0000.0001)  OB_Iw = /* Western OB local indices */
(PID.TID 0000.0001)    21 @        0                            /* J = -2: 18 */
(PID.TID 0000.0001) OBCS_CHECK: end summary.
(PID.TID 0000.0001) OBCS_CHECK: #define ALLOW_ORLANSKI
(PID.TID 0000.0001) OBCS_CHECK: set-up OK
(PID.TID 0000.0001) OBCS_CHECK: check Inside Mask and OB locations: OK
(PID.TID 0000.0001) GAD_CHECK: #define ALLOW_GENERIC_ADVDIFF
(PID.TID 0000.0001) // =======================================================
(PID.TID 0000.0001) // CONFIG_CHECK : Normal End
(PID.TID 0000.0001) // =======================================================
(PID.TID 0000.0001) 
(PID.TID 0000.0001)  MDS_READ_FIELD: opening global file: T.init
(PID.TID 0000.0001) Start initial hydrostatic pressure computation
(PID.TID 0000.0001) Pressure is predetermined for buoyancyRelation OCEANIC
(PID.TID 0000.0001) 
(PID.TID 0000.0001)  write diagnostics summary to file ioUnit:      6
Iter.Nb:         0 ; Time(s):  0.0000000000000E+00
------------------------------------------------------------------------
2D/3D diagnostics: Number of lists:     1
------------------------------------------------------------------------
listId=    1 ; file name: visc
 nFlds, nActive,       freq     &     phase        , nLev               
    1  |    1  |      3000.000000         0.000000 |  25
 levels:   1   2   3   4   5   6   7   8   9  10  11  12  13  14  15  16  17  18  19  20  21  22  23  24  25
 diag# | name   |   ipt  |  iMate | kLev|   count |   mate.C|           
   114 |VISCA4D |      1 |      0 |  25 |       0 |
------------------------------------------------------------------------
Global & Regional Statistics diagnostics: Number of lists:     0
------------------------------------------------------------------------
(PID.TID 0000.0001) // =======================================================
(PID.TID 0000.0001) // Model current state
(PID.TID 0000.0001) // =======================================================
(PID.TID 0000.0001) 
(PID.TID 0000.0001) // =======================================================
(PID.TID 0000.0001) // Begin MONITOR dynamic field statistics
(PID.TID 0000.0001) // =======================================================
(PID.TID 0000.0001) %MON time_tsnumber                =                     0
(PID.TID 0000.0001) %MON time_secondsf                =   0.0000000000000E+00
(PID.TID 0000.0001) %MON dynstat_eta_max              =   0.0000000000000E+00
(PID.TID 0000.0001) %MON dynstat_eta_min              =   0.0000000000000E+00
(PID.TID 0000.0001) %MON dynstat_eta_mean             =   0.0000000000000E+00
(PID.TID 0000.0001) %MON dynstat_eta_sd               =   0.0000000000000E+00
(PID.TID 0000.0001) %MON dynstat_eta_del2             =   0.0000000000000E+00
(PID.TID 0000.0001) %MON dynstat_uvel_max             =   0.0000000000000E+00
(PID.TID 0000.0001) %MON dynstat_uvel_min             =  -6.4163451288665E-03
(PID.TID 0000.0001) %MON dynstat_uvel_mean            =  -3.2379568874729E-05
(PID.TID 0000.0001) %MON dynstat_uvel_sd              =   4.5465377216476E-04
(PID.TID 0000.0001) %MON dynstat_uvel_del2            =   1.2549268305729E-06
(PID.TID 0000.0001) %MON dynstat_vvel_max             =   0.0000000000000E+00
(PID.TID 0000.0001) %MON dynstat_vvel_min             =  -1.9393424916281E+00
(PID.TID 0000.0001) %MON dynstat_vvel_mean            =  -3.4655218654072E-05
(PID.TID 0000.0001) %MON dynstat_vvel_sd              =   6.8807137330889E-03
(PID.TID 0000.0001) %MON dynstat_vvel_del2            =   3.0729256916910E-05
(PID.TID 0000.0001) %MON dynstat_wvel_max             =   4.8654875667578E-02
(PID.TID 0000.0001) %MON dynstat_wvel_min             =  -2.3098842463919E-03
(PID.TID 0000.0001) %MON dynstat_wvel_mean            =  -3.3680397589145E-06
(PID.TID 0000.0001) %MON dynstat_wvel_sd              =   2.3990874705210E-04
(PID.TID 0000.0001) %MON dynstat_wvel_del2            =   1.8498228861197E-06
(PID.TID 0000.0001) %MON dynstat_theta_max            =  -1.9417475728155E-01
(PID.TID 0000.0001) %MON dynstat_theta_min            =  -9.5145631067961E+00
(PID.TID 0000.0001) %MON dynstat_theta_mean           =  -4.1286966537604E+00
(PID.TID 0000.0001) %MON dynstat_theta_sd             =   2.6831487372247E+00
(PID.TID 0000.0001) %MON dynstat_theta_del2           =   2.1873901983804E-04
(PID.TID 0000.0001) %MON dynstat_salt_max             =   1.0000000000000E+00
(PID.TID 0000.0001) %MON dynstat_salt_min             =   1.0000000000000E+00
(PID.TID 0000.0001) %MON dynstat_salt_mean            =   1.0000000000000E+00
(PID.TID 0000.0001) %MON dynstat_salt_sd              =   0.0000000000000E+00
(PID.TID 0000.0001) %MON dynstat_salt_del2            =   2.7262958800310E-05
(PID.TID 0000.0001) %MON advcfl_uvel_max              =   1.9249035386599E-04
(PID.TID 0000.0001) %MON advcfl_vvel_max              =   5.8180274573569E-02
(PID.TID 0000.0001) %MON advcfl_wvel_max              =   2.0272864861491E-01
(PID.TID 0000.0001) %MON advcfl_W_hf_max              =   1.0136432430745E-01
(PID.TID 0000.0001) %MON pe_b_mean                    =   0.0000000000000E+00
(PID.TID 0000.0001) %MON ke_max                       =   9.4026232426482E-01
(PID.TID 0000.0001) %MON ke_mean                      =   1.1110057301664E-05
(PID.TID 0000.0001) %MON ke_vol                       =   2.6917364717940E+15
(PID.TID 0000.0001) %MON vort_r_min                   =  -1.9393424916281E-04
(PID.TID 0000.0001) %MON vort_r_max                   =   1.0515998329668E-04
(PID.TID 0000.0001) %MON vort_a_mean                  =   1.0000000000000E-04
(PID.TID 0000.0001) %MON vort_a_sd                    =   7.5827304922450E-07
(PID.TID 0000.0001) %MON vort_p_mean                  =   1.1277618388223E-04
(PID.TID 0000.0001) %MON vort_p_sd                    =   7.1145626930679E-05
(PID.TID 0000.0001) %MON surfExpan_theta_mean         =  -6.8963694564649E-22
(PID.TID 0000.0001) %MON surfExpan_salt_mean          =   3.6780637101146E-21
(PID.TID 0000.0001) // =======================================================
(PID.TID 0000.0001) // End MONITOR dynamic field statistics
(PID.TID 0000.0001) // =======================================================
(PID.TID 0000.0001) // =======================================================
(PID.TID 0000.0001) // Begin OBCS MONITOR field statistics
(PID.TID 0000.0001) // =======================================================
(PID.TID 0000.0001) %MON obc_time_tsnumber            =                     0
(PID.TID 0000.0001) %MON obc_time_secondsf            =   0.0000000000000E+00
(PID.TID 0000.0001) %MON obc_W_uVel_max               =  -6.4163451288665E-03
(PID.TID 0000.0001) %MON obc_W_uVel_min               =  -6.4163451288665E-03
(PID.TID 0000.0001) %MON obc_W_uVel_mean              =  -6.4163451288665E-03
(PID.TID 0000.0001) %MON obc_W_uVel_sd                =  -4.7433845046241E-20
(PID.TID 0000.0001) %MON obc_W_uVel_Int               =  -8.7149433215699E+06
(PID.TID 0000.0001) %MON obc_N_vVel_max               =   0.0000000000000E+00
(PID.TID 0000.0001) %MON obc_N_vVel_min               =  -1.9393424916281E+00
(PID.TID 0000.0001) %MON obc_N_vVel_mean              =  -1.4409628507887E-01
(PID.TID 0000.0001) %MON obc_N_vVel_sd                =   4.1964076465239E-01
(PID.TID 0000.0001) %MON obc_N_vVel_Int               =  -8.7149433215698E+06
(PID.TID 0000.0001) // =======================================================
(PID.TID 0000.0001) // End OBCS MONITOR field statistics
(PID.TID 0000.0001) // =======================================================
(PID.TID 0000.0001) SOLVE_FOR_PRESSURE: putPmEinXvector =    F
(PID.TID 0000.0001) SOLVE_FOR_PRESSURE: zeroPsNH=    F , zeroMeanPnh=    F
(PID.TID 0000.0001) SOLVE_FOR_PRESSURE: oldFreeSurfTerm =    F
 cg2d: Sum(rhs),rhsMax =  -8.88178419700125E-16  1.12018248462200E+00
(PID.TID 0000.0001)                    cg2d_init_res =    1.19500299960655E+00
(PID.TID 0000.0001)                       cg2d_iters =    85
(PID.TID 0000.0001)                         cg2d_res =    9.32032208831791E-12
(PID.TID 0000.0001) // =======================================================
(PID.TID 0000.0001) // Begin MONITOR dynamic field statistics
(PID.TID 0000.0001) // =======================================================
(PID.TID 0000.0001) %MON time_tsnumber                =                     1
(PID.TID 0000.0001) %MON time_secondsf                =   3.0000000000000E+02
(PID.TID 0000.0001) %MON dynstat_eta_max              =   3.0353380409539E+00
(PID.TID 0000.0001) %MON dynstat_eta_min              =  -1.1261765257783E-01
(PID.TID 0000.0001) %MON dynstat_eta_mean             =   7.7235996282858E-14
(PID.TID 0000.0001) %MON dynstat_eta_sd               =   5.3946178300338E-02
(PID.TID 0000.0001) %MON dynstat_eta_del2             =   1.2374383784516E-04
(PID.TID 0000.0001) %MON dynstat_uvel_max             =   2.3488674574828E-01
(PID.TID 0000.0001) %MON dynstat_uvel_min             =  -3.6259076572823E-02
(PID.TID 0000.0001) %MON dynstat_uvel_mean            =  -1.4359620932576E-04
(PID.TID 0000.0001) %MON dynstat_uvel_sd              =   2.2892184491562E-03
(PID.TID 0000.0001) %MON dynstat_uvel_del2            =   1.0041837861478E-05
(PID.TID 0000.0001) %MON dynstat_vvel_max             =   7.5698201672241E-05
(PID.TID 0000.0001) %MON dynstat_vvel_min             =  -1.9393424916281E+00
(PID.TID 0000.0001) %MON dynstat_vvel_mean            =  -1.1802503288840E-04
(PID.TID 0000.0001) %MON dynstat_vvel_sd              =   7.5550319065596E-03
(PID.TID 0000.0001) %MON dynstat_vvel_del2            =   2.3873024978909E-05
(PID.TID 0000.0001) %MON dynstat_wvel_max             =   2.8207181925557E-02
(PID.TID 0000.0001) %MON dynstat_wvel_min             =  -3.7539217525983E-04
(PID.TID 0000.0001) %MON dynstat_wvel_mean            =  -3.3680397589145E-06
(PID.TID 0000.0001) %MON dynstat_wvel_sd              =   1.2633992577851E-04
(PID.TID 0000.0001) %MON dynstat_wvel_del2            =   7.9509412207777E-07
(PID.TID 0000.0001) %MON dynstat_theta_max            =  -1.9417475728155E-01
(PID.TID 0000.0001) %MON dynstat_theta_min            =  -9.5145631067961E+00
(PID.TID 0000.0001) %MON dynstat_theta_mean           =  -4.1287011069732E+00
(PID.TID 0000.0001) %MON dynstat_theta_sd             =   2.6831419709336E+00
(PID.TID 0000.0001) %MON dynstat_theta_del2           =   2.0920559980539E-04
(PID.TID 0000.0001) %MON dynstat_salt_max             =   1.0559345352428E+00
(PID.TID 0000.0001) %MON dynstat_salt_min             =   1.0000000000000E+00
(PID.TID 0000.0001) %MON dynstat_salt_mean            =   1.0000008720292E+00
(PID.TID 0000.0001) %MON dynstat_salt_sd              =   1.8308646201208E-04
(PID.TID 0000.0001) %MON dynstat_salt_del2            =   2.6117179468824E-05
(PID.TID 0000.0001) %MON advcfl_uvel_max              =   7.0466023724483E-03
(PID.TID 0000.0001) %MON advcfl_vvel_max              =   5.8180274573569E-02
(PID.TID 0000.0001) %MON advcfl_wvel_max              =   5.8764962344911E-02
(PID.TID 0000.0001) %MON advcfl_W_hf_max              =   5.8764962344911E-02
(PID.TID 0000.0001) %MON pe_b_mean                    =   5.3390070883180E-06
(PID.TID 0000.0001) %MON ke_max                       =   9.9881491137983E-01
(PID.TID 0000.0001) %MON ke_mean                      =   1.8189598564116E-05
(PID.TID 0000.0001) %MON ke_vol                       =   2.6917364717940E+15
(PID.TID 0000.0001) %MON vort_r_min                   =  -1.9393424916281E-04
(PID.TID 0000.0001) %MON vort_r_max                   =   1.2827465625541E-04
(PID.TID 0000.0001) %MON vort_a_mean                  =   1.0000000000000E-04
(PID.TID 0000.0001) %MON vort_a_sd                    =   8.7455228510155E-07
(PID.TID 0000.0001) %MON vort_p_mean                  =   1.1277618388223E-04
(PID.TID 0000.0001) %MON vort_p_sd                    =   7.1131918150917E-05
(PID.TID 0000.0001) %MON surfExpan_theta_mean         =  -1.4105238315449E-08
(PID.TID 0000.0001) %MON surfExpan_salt_mean          =   1.0014103148242E-20
(PID.TID 0000.0001) // =======================================================
(PID.TID 0000.0001) // End MONITOR dynamic field statistics
(PID.TID 0000.0001) // =======================================================
 cg2d: Sum(rhs),rhsMax =  -1.25637444892135E-10  4.80395486135467E-01
(PID.TID 0000.0001)                    cg2d_init_res =    1.93081523704493E+00
(PID.TID 0000.0001)                       cg2d_iters =    88
(PID.TID 0000.0001)                         cg2d_res =    7.32809020989618E-12
(PID.TID 0000.0001) // =======================================================
(PID.TID 0000.0001) // Begin MONITOR dynamic field statistics
(PID.TID 0000.0001) // =======================================================
(PID.TID 0000.0001) %MON time_tsnumber                =                     2
(PID.TID 0000.0001) %MON time_secondsf                =   6.0000000000000E+02
(PID.TID 0000.0001) %MON dynstat_eta_max              =   2.3907898415142E+00
(PID.TID 0000.0001) %MON dynstat_eta_min              =  -1.2394946917474E-01
(PID.TID 0000.0001) %MON dynstat_eta_mean             =   9.7100306175519E-14
(PID.TID 0000.0001) %MON dynstat_eta_sd               =   6.8653130022178E-02
(PID.TID 0000.0001) %MON dynstat_eta_del2             =   7.1270643705169E-05
(PID.TID 0000.0001) %MON dynstat_uvel_max             =   3.3285393411598E-01
(PID.TID 0000.0001) %MON dynstat_uvel_min             =  -1.0672988855856E-01
(PID.TID 0000.0001) %MON dynstat_uvel_mean            =  -2.7158901137110E-04
(PID.TID 0000.0001) %MON dynstat_uvel_sd              =   3.8611832131740E-03
(PID.TID 0000.0001) %MON dynstat_uvel_del2            =   1.4170771694859E-05
(PID.TID 0000.0001) %MON dynstat_vvel_max             =   2.0047588527628E-04
(PID.TID 0000.0001) %MON dynstat_vvel_min             =  -1.9393424916281E+00
(PID.TID 0000.0001) %MON dynstat_vvel_mean            =  -2.3813768081274E-04
(PID.TID 0000.0001) %MON dynstat_vvel_sd              =   8.5974049711110E-03
(PID.TID 0000.0001) %MON dynstat_vvel_del2            =   2.3175414712331E-05
(PID.TID 0000.0001) %MON dynstat_wvel_max             =   2.1778458723318E-02
(PID.TID 0000.0001) %MON dynstat_wvel_min             =  -2.1484939981316E-03
(PID.TID 0000.0001) %MON dynstat_wvel_mean            =  -3.3680397589145E-06
(PID.TID 0000.0001) %MON dynstat_wvel_sd              =   9.2840937095606E-05
(PID.TID 0000.0001) %MON dynstat_wvel_del2            =   6.2194352115356E-07
(PID.TID 0000.0001) %MON dynstat_theta_max            =  -1.9417475728155E-01
(PID.TID 0000.0001) %MON dynstat_theta_min            =  -9.5145631067961E+00
(PID.TID 0000.0001) %MON dynstat_theta_mean           =  -4.1287055601939E+00
(PID.TID 0000.0001) %MON dynstat_theta_sd             =   2.6831360483027E+00
(PID.TID 0000.0001) %MON dynstat_theta_del2           =   2.0046680387190E-04
(PID.TID 0000.0001) %MON dynstat_salt_max             =   1.1100332014078E+00
(PID.TID 0000.0001) %MON dynstat_salt_min             =   1.0000000000000E+00
(PID.TID 0000.0001) %MON dynstat_salt_mean            =   1.0000017440585E+00
(PID.TID 0000.0001) %MON dynstat_salt_sd              =   3.6267953594415E-04
(PID.TID 0000.0001) %MON dynstat_salt_del2            =   2.5060588257297E-05
(PID.TID 0000.0001) %MON advcfl_uvel_max              =   9.9856180234795E-03
(PID.TID 0000.0001) %MON advcfl_vvel_max              =   5.8180274573569E-02
(PID.TID 0000.0001) %MON advcfl_wvel_max              =   4.5371789006912E-02
(PID.TID 0000.0001) %MON advcfl_W_hf_max              =   4.5371789006912E-02
(PID.TID 0000.0001) %MON pe_b_mean                    =   8.6468876293988E-06
(PID.TID 0000.0001) %MON ke_max                       =   1.0462913541843E+00
(PID.TID 0000.0001) %MON ke_mean                      =   3.0934748557099E-05
(PID.TID 0000.0001) %MON ke_vol                       =   2.6917364717940E+15
(PID.TID 0000.0001) %MON vort_r_min                   =  -1.9393424916281E-04
(PID.TID 0000.0001) %MON vort_r_max                   =   1.3556482028093E-04
(PID.TID 0000.0001) %MON vort_a_mean                  =   1.0000000000000E-04
(PID.TID 0000.0001) %MON vort_a_sd                    =   9.6538057638562E-07
(PID.TID 0000.0001) %MON vort_p_mean                  =   1.1277618388223E-04
(PID.TID 0000.0001) %MON vort_p_sd                    =   7.1124472992814E-05
(PID.TID 0000.0001) %MON surfExpan_theta_mean         =  -2.9304494872801E-09
(PID.TID 0000.0001) %MON surfExpan_salt_mean          =  -5.2384685613313E-15
(PID.TID 0000.0001) // =======================================================
(PID.TID 0000.0001) // End MONITOR dynamic field statistics
(PID.TID 0000.0001) // =======================================================
 cg2d: Sum(rhs),rhsMax =  -3.53694407095873E-10  2.14538388956346E-01
(PID.TID 0000.0001)                    cg2d_init_res =    2.30158787475977E+00
(PID.TID 0000.0001)                       cg2d_iters =    89
(PID.TID 0000.0001)                         cg2d_res =    7.40555913582289E-12
(PID.TID 0000.0001) // =======================================================
(PID.TID 0000.0001) // Begin MONITOR dynamic field statistics
(PID.TID 0000.0001) // =======================================================
(PID.TID 0000.0001) %MON time_tsnumber                =                     3
(PID.TID 0000.0001) %MON time_secondsf                =   9.0000000000000E+02
(PID.TID 0000.0001) %MON dynstat_eta_max              =   1.4889531383473E+00
(PID.TID 0000.0001) %MON dynstat_eta_min              =  -1.2516034428964E-01
(PID.TID 0000.0001) %MON dynstat_eta_mean             =   1.0940245322532E-13
(PID.TID 0000.0001) %MON dynstat_eta_sd               =   7.2220394429548E-02
(PID.TID 0000.0001) %MON dynstat_eta_del2             =   6.3366435498157E-05
(PID.TID 0000.0001) %MON dynstat_uvel_max             =   3.5564416718763E-01
(PID.TID 0000.0001) %MON dynstat_uvel_min             =  -1.7536391622586E-01
(PID.TID 0000.0001) %MON dynstat_uvel_mean            =  -4.1925869203034E-04
(PID.TID 0000.0001) %MON dynstat_uvel_sd              =   4.7164676023643E-03
(PID.TID 0000.0001) %MON dynstat_uvel_del2            =   1.5145089900842E-05
(PID.TID 0000.0001) %MON dynstat_vvel_max             =   2.1095698158481E-04
(PID.TID 0000.0001) %MON dynstat_vvel_min             =  -1.9393424916281E+00
(PID.TID 0000.0001) %MON dynstat_vvel_mean            =  -3.9337581188110E-04
(PID.TID 0000.0001) %MON dynstat_vvel_sd              =   9.3977301864889E-03
(PID.TID 0000.0001) %MON dynstat_vvel_del2            =   2.3163285865453E-05
(PID.TID 0000.0001) %MON dynstat_wvel_max             =   2.1203023540790E-02
(PID.TID 0000.0001) %MON dynstat_wvel_min             =  -3.0382251223165E-03
(PID.TID 0000.0001) %MON dynstat_wvel_mean            =  -3.3680397589145E-06
(PID.TID 0000.0001) %MON dynstat_wvel_sd              =   8.7426642622373E-05
(PID.TID 0000.0001) %MON dynstat_wvel_del2            =   6.1585206645963E-07
(PID.TID 0000.0001) %MON dynstat_theta_max            =  -1.9417475728155E-01
(PID.TID 0000.0001) %MON dynstat_theta_min            =  -9.5145631067961E+00
(PID.TID 0000.0001) %MON dynstat_theta_mean           =  -4.1287100138894E+00
(PID.TID 0000.0001) %MON dynstat_theta_sd             =   2.6831309064592E+00
(PID.TID 0000.0001) %MON dynstat_theta_del2           =   1.9254060541444E-04
(PID.TID 0000.0001) %MON dynstat_salt_max             =   1.1621609964878E+00
(PID.TID 0000.0001) %MON dynstat_salt_min             =   1.0000000000000E+00
(PID.TID 0000.0001) %MON dynstat_salt_mean            =   1.0000026160877E+00
(PID.TID 0000.0001) %MON dynstat_salt_sd              =   5.3853149492455E-04
(PID.TID 0000.0001) %MON dynstat_salt_del2            =   2.4098016434833E-05
(PID.TID 0000.0001) %MON advcfl_uvel_max              =   1.0669325015629E-02
(PID.TID 0000.0001) %MON advcfl_vvel_max              =   5.8180274573569E-02
(PID.TID 0000.0001) %MON advcfl_wvel_max              =   4.4172965709980E-02
(PID.TID 0000.0001) %MON advcfl_W_hf_max              =   4.4172965709980E-02
(PID.TID 0000.0001) %MON pe_b_mean                    =   9.5688300777074E-06
(PID.TID 0000.0001) %MON ke_max                       =   1.0573410301180E+00
(PID.TID 0000.0001) %MON ke_mean                      =   4.1426903051555E-05
(PID.TID 0000.0001) %MON ke_vol                       =   2.6917364717940E+15
(PID.TID 0000.0001) %MON vort_r_min                   =  -1.9393424916281E-04
(PID.TID 0000.0001) %MON vort_r_max                   =   1.3563916089854E-04
(PID.TID 0000.0001) %MON vort_a_mean                  =   1.0000000000000E-04
(PID.TID 0000.0001) %MON vort_a_sd                    =   1.0043103400192E-06
(PID.TID 0000.0001) %MON vort_p_mean                  =   1.1277618388223E-04
(PID.TID 0000.0001) %MON vort_p_sd                    =   7.1120325655382E-05
(PID.TID 0000.0001) %MON surfExpan_theta_mean         =   2.3563672799803E-09
(PID.TID 0000.0001) %MON surfExpan_salt_mean          =  -2.2077610522536E-14
(PID.TID 0000.0001) // =======================================================
(PID.TID 0000.0001) // End MONITOR dynamic field statistics
(PID.TID 0000.0001) // =======================================================
 cg2d: Sum(rhs),rhsMax =  -7.49066586536173E-10  1.14126754644497E-01
(PID.TID 0000.0001)                    cg2d_init_res =    2.64825531799003E+00
(PID.TID 0000.0001)                       cg2d_iters =    90
(PID.TID 0000.0001)                         cg2d_res =    7.92425950917147E-12
(PID.TID 0000.0001) // =======================================================
(PID.TID 0000.0001) // Begin MONITOR dynamic field statistics
(PID.TID 0000.0001) // =======================================================
(PID.TID 0000.0001) %MON time_tsnumber                =                     4
(PID.TID 0000.0001) %MON time_secondsf                =   1.2000000000000E+03
(PID.TID 0000.0001) %MON dynstat_eta_max              =   9.4406545048360E-01
(PID.TID 0000.0001) %MON dynstat_eta_min              =  -1.2459064955227E-01
(PID.TID 0000.0001) %MON dynstat_eta_mean             =   1.1769478609771E-13
(PID.TID 0000.0001) %MON dynstat_eta_sd               =   7.2427800406951E-02
(PID.TID 0000.0001) %MON dynstat_eta_del2             =   4.1387871784353E-05
(PID.TID 0000.0001) %MON dynstat_uvel_max             =   3.4545560048956E-01
(PID.TID 0000.0001) %MON dynstat_uvel_min             =  -2.1876311512834E-01
(PID.TID 0000.0001) %MON dynstat_uvel_mean            =  -5.8778796746151E-04
(PID.TID 0000.0001) %MON dynstat_uvel_sd              =   5.0851870961296E-03
(PID.TID 0000.0001) %MON dynstat_uvel_del2            =   1.4851980856472E-05
(PID.TID 0000.0001) %MON dynstat_vvel_max             =   1.5767142854111E-04
(PID.TID 0000.0001) %MON dynstat_vvel_min             =  -1.9393424916281E+00
(PID.TID 0000.0001) %MON dynstat_vvel_mean            =  -5.8440925163372E-04
(PID.TID 0000.0001) %MON dynstat_vvel_sd              =   9.9796663433483E-03
(PID.TID 0000.0001) %MON dynstat_vvel_del2            =   2.2996520725601E-05
(PID.TID 0000.0001) %MON dynstat_wvel_max             =   2.1540243367263E-02
(PID.TID 0000.0001) %MON dynstat_wvel_min             =  -2.0166149187653E-03
(PID.TID 0000.0001) %MON dynstat_wvel_mean            =  -3.3680523130567E-06
(PID.TID 0000.0001) %MON dynstat_wvel_sd              =   8.8530356858254E-05
(PID.TID 0000.0001) %MON dynstat_wvel_del2            =   6.1310933571380E-07
(PID.TID 0000.0001) %MON dynstat_theta_max            =  -1.9417475728155E-01
(PID.TID 0000.0001) %MON dynstat_theta_min            =  -9.5145631067961E+00
(PID.TID 0000.0001) %MON dynstat_theta_mean           =  -4.1287144677013E+00
(PID.TID 0000.0001) %MON dynstat_theta_sd             =   2.6831264881850E+00
(PID.TID 0000.0001) %MON dynstat_theta_del2           =   1.8545598631321E-04
(PID.TID 0000.0001) %MON dynstat_salt_max             =   1.2123951084168E+00
(PID.TID 0000.0001) %MON dynstat_salt_min             =   1.0000000000000E+00
(PID.TID 0000.0001) %MON dynstat_salt_mean            =   1.0000034881169E+00
(PID.TID 0000.0001) %MON dynstat_salt_sd              =   7.1067648121719E-04
(PID.TID 0000.0001) %MON dynstat_salt_del2            =   2.3233053940578E-05
(PID.TID 0000.0001) %MON advcfl_uvel_max              =   1.0363668014687E-02
(PID.TID 0000.0001) %MON advcfl_vvel_max              =   5.8180274573569E-02
(PID.TID 0000.0001) %MON advcfl_wvel_max              =   4.4875507015131E-02
(PID.TID 0000.0001) %MON advcfl_W_hf_max              =   4.4875507015131E-02
(PID.TID 0000.0001) %MON pe_b_mean                    =   9.6238694430236E-06
(PID.TID 0000.0001) %MON ke_max                       =   1.0625186405980E+00
(PID.TID 0000.0001) %MON ke_mean                      =   4.8673371507193E-05
(PID.TID 0000.0001) %MON ke_vol                       =   2.6917364717940E+15
(PID.TID 0000.0001) %MON vort_r_min                   =  -1.9393424916281E-04
(PID.TID 0000.0001) %MON vort_r_max                   =   1.3413541816830E-04
(PID.TID 0000.0001) %MON vort_a_mean                  =   9.9999999968983E-05
(PID.TID 0000.0001) %MON vort_a_sd                    =   1.0146268425440E-06
(PID.TID 0000.0001) %MON vort_p_mean                  =   1.1277618384725E-04
(PID.TID 0000.0001) %MON vort_p_sd                    =   7.1117927678870E-05
(PID.TID 0000.0001) %MON surfExpan_theta_mean         =   3.8612116081354E-09
(PID.TID 0000.0001) %MON surfExpan_salt_mean          =  -4.9804816096854E-14
(PID.TID 0000.0001) // =======================================================
(PID.TID 0000.0001) // End MONITOR dynamic field statistics
(PID.TID 0000.0001) // =======================================================
 cg2d: Sum(rhs),rhsMax =  -1.29193011844109E-09  7.11810327145641E-02
(PID.TID 0000.0001)                    cg2d_init_res =    3.13973832131340E+00
(PID.TID 0000.0001)                       cg2d_iters =    90
(PID.TID 0000.0001)                         cg2d_res =    8.56040464618718E-12
(PID.TID 0000.0001) // =======================================================
(PID.TID 0000.0001) // Begin MONITOR dynamic field statistics
(PID.TID 0000.0001) // =======================================================
(PID.TID 0000.0001) %MON time_tsnumber                =                     5
(PID.TID 0000.0001) %MON time_secondsf                =   1.5000000000000E+03
(PID.TID 0000.0001) %MON dynstat_eta_max              =   7.7196288869262E-01
(PID.TID 0000.0001) %MON dynstat_eta_min              =  -1.2276800593675E-01
(PID.TID 0000.0001) %MON dynstat_eta_mean             =   1.2264988296454E-13
(PID.TID 0000.0001) %MON dynstat_eta_sd               =   7.0959321700073E-02
(PID.TID 0000.0001) %MON dynstat_eta_del2             =   2.7523986747790E-05
(PID.TID 0000.0001) %MON dynstat_uvel_max             =   3.3083956683607E-01
(PID.TID 0000.0001) %MON dynstat_uvel_min             =  -2.3769507355375E-01
(PID.TID 0000.0001) %MON dynstat_uvel_mean            =  -7.7267954193080E-04
(PID.TID 0000.0001) %MON dynstat_uvel_sd              =   5.2280967334866E-03
(PID.TID 0000.0001) %MON dynstat_uvel_del2            =   1.4144615791822E-05
(PID.TID 0000.0001) %MON dynstat_vvel_max             =   1.3197205056255E-04
(PID.TID 0000.0001) %MON dynstat_vvel_min             =  -1.9393424916281E+00
(PID.TID 0000.0001) %MON dynstat_vvel_mean            =  -8.0726047806842E-04
(PID.TID 0000.0001) %MON dynstat_vvel_sd              =   1.0395915020374E-02
(PID.TID 0000.0001) %MON dynstat_vvel_del2            =   2.2626742660425E-05
(PID.TID 0000.0001) %MON dynstat_wvel_max             =   2.1705362985084E-02
(PID.TID 0000.0001) %MON dynstat_wvel_min             =  -1.7984811820018E-03
(PID.TID 0000.0001) %MON dynstat_wvel_mean            =  -3.3680293682319E-06
(PID.TID 0000.0001) %MON dynstat_wvel_sd              =   9.0232680284470E-05
(PID.TID 0000.0001) %MON dynstat_wvel_del2            =   6.0115119582772E-07
(PID.TID 0000.0001) %MON dynstat_theta_max            =  -1.9417475728155E-01
(PID.TID 0000.0001) %MON dynstat_theta_min            =  -9.5145631067961E+00
(PID.TID 0000.0001) %MON dynstat_theta_mean           =  -4.1287189215367E+00
(PID.TID 0000.0001) %MON dynstat_theta_sd             =   2.6831227453248E+00
(PID.TID 0000.0001) %MON dynstat_theta_del2           =   1.7923459183663E-04
(PID.TID 0000.0001) %MON dynstat_salt_max             =   1.2609123167321E+00
(PID.TID 0000.0001) %MON dynstat_salt_min             =   1.0000000000000E+00
(PID.TID 0000.0001) %MON dynstat_salt_mean            =   1.0000043601462E+00
(PID.TID 0000.0001) %MON dynstat_salt_sd              =   8.7936718118308E-04
(PID.TID 0000.0001) %MON dynstat_salt_del2            =   2.2467961811146E-05
(PID.TID 0000.0001) %MON advcfl_uvel_max              =   9.9251870050821E-03
(PID.TID 0000.0001) %MON advcfl_vvel_max              =   5.8180274573569E-02
(PID.TID 0000.0001) %MON advcfl_wvel_max              =   4.5219506218925E-02
(PID.TID 0000.0001) %MON advcfl_W_hf_max              =   4.5219506218925E-02
(PID.TID 0000.0001) %MON pe_b_mean                    =   9.2375763594797E-06
(PID.TID 0000.0001) %MON ke_max                       =   1.0699606906606E+00
(PID.TID 0000.0001) %MON ke_mean                      =   5.3642703250082E-05
(PID.TID 0000.0001) %MON ke_vol                       =   2.6917364717940E+15
(PID.TID 0000.0001) %MON vort_r_min                   =  -1.9393424916281E-04
(PID.TID 0000.0001) %MON vort_r_max                   =   1.3265222417564E-04
(PID.TID 0000.0001) %MON vort_a_mean                  =   9.9999999938327E-05
(PID.TID 0000.0001) %MON vort_a_sd                    =   1.0131847887180E-06
(PID.TID 0000.0001) %MON vort_p_mean                  =   1.1277618381268E-04
(PID.TID 0000.0001) %MON vort_p_sd                    =   7.1116144912104E-05
(PID.TID 0000.0001) %MON surfExpan_theta_mean         =   4.0390928693183E-09
(PID.TID 0000.0001) %MON surfExpan_salt_mean          =  -9.0767056703253E-14
(PID.TID 0000.0001) // =======================================================
(PID.TID 0000.0001) // End MONITOR dynamic field statistics
(PID.TID 0000.0001) // =======================================================
 cg2d: Sum(rhs),rhsMax =  -1.55275969859758E-09  6.17348837051394E-02
(PID.TID 0000.0001)                    cg2d_init_res =    2.93563426833710E+00
(PID.TID 0000.0001)                       cg2d_iters =    88
(PID.TID 0000.0001)                         cg2d_res =    8.55687959444205E-12
(PID.TID 0000.0001) // =======================================================
(PID.TID 0000.0001) // Begin MONITOR dynamic field statistics
(PID.TID 0000.0001) // =======================================================
(PID.TID 0000.0001) %MON time_tsnumber                =                     6
(PID.TID 0000.0001) %MON time_secondsf                =   1.8000000000000E+03
(PID.TID 0000.0001) %MON dynstat_eta_max              =   6.3537374096923E-01
(PID.TID 0000.0001) %MON dynstat_eta_min              =  -1.2007770409797E-01
(PID.TID 0000.0001) %MON dynstat_eta_mean             =   1.1616138890888E-13
(PID.TID 0000.0001) %MON dynstat_eta_sd               =   6.8293835739192E-02
(PID.TID 0000.0001) %MON dynstat_eta_del2             =   2.0723273013051E-05
(PID.TID 0000.0001) %MON dynstat_uvel_max             =   3.2011597004205E-01
(PID.TID 0000.0001) %MON dynstat_uvel_min             =  -2.4269362959322E-01
(PID.TID 0000.0001) %MON dynstat_uvel_mean            =  -9.7002588993846E-04
(PID.TID 0000.0001) %MON dynstat_uvel_sd              =   5.3304542296585E-03
(PID.TID 0000.0001) %MON dynstat_uvel_del2            =   1.3473382378354E-05
(PID.TID 0000.0001) %MON dynstat_vvel_max             =   2.1001321617538E-04
(PID.TID 0000.0001) %MON dynstat_vvel_min             =  -1.9393424916281E+00
(PID.TID 0000.0001) %MON dynstat_vvel_mean            =  -1.0530153231551E-03
(PID.TID 0000.0001) %MON dynstat_vvel_sd              =   1.0670534832781E-02
(PID.TID 0000.0001) %MON dynstat_vvel_del2            =   2.2141085669003E-05
(PID.TID 0000.0001) %MON dynstat_wvel_max             =   2.1646906932686E-02
(PID.TID 0000.0001) %MON dynstat_wvel_min             =  -1.8098360767312E-03
(PID.TID 0000.0001) %MON dynstat_wvel_mean            =  -3.3679904711673E-06
(PID.TID 0000.0001) %MON dynstat_wvel_sd              =   9.1706536836456E-05
(PID.TID 0000.0001) %MON dynstat_wvel_del2            =   5.8425359047384E-07
(PID.TID 0000.0001) %MON dynstat_theta_max            =  -1.9417475728155E-01
(PID.TID 0000.0001) %MON dynstat_theta_min            =  -9.5145631067961E+00
(PID.TID 0000.0001) %MON dynstat_theta_mean           =  -4.1287233753730E+00
(PID.TID 0000.0001) %MON dynstat_theta_sd             =   2.6831196358313E+00
(PID.TID 0000.0001) %MON dynstat_theta_del2           =   1.7389111121495E-04
(PID.TID 0000.0001) %MON dynstat_salt_max             =   1.3078926755451E+00
(PID.TID 0000.0001) %MON dynstat_salt_min             =   1.0000000000000E+00
(PID.TID 0000.0001) %MON dynstat_salt_mean            =   1.0000052321754E+00
(PID.TID 0000.0001) %MON dynstat_salt_sd              =   1.0448777853644E-03
(PID.TID 0000.0001) %MON dynstat_salt_del2            =   2.1804386393024E-05
(PID.TID 0000.0001) %MON advcfl_uvel_max              =   9.6034791012616E-03
(PID.TID 0000.0001) %MON advcfl_vvel_max              =   5.8180274573569E-02
(PID.TID 0000.0001) %MON advcfl_wvel_max              =   4.5097722776430E-02
(PID.TID 0000.0001) %MON advcfl_W_hf_max              =   4.5097722776430E-02
(PID.TID 0000.0001) %MON pe_b_mean                    =   8.5566179600401E-06
(PID.TID 0000.0001) %MON ke_max                       =   1.0798248710696E+00
(PID.TID 0000.0001) %MON ke_mean                      =   5.7270970854530E-05
(PID.TID 0000.0001) %MON ke_vol                       =   2.6917364717940E+15
(PID.TID 0000.0001) %MON vort_r_min                   =  -1.9393424916281E-04
(PID.TID 0000.0001) %MON vort_r_max                   =   1.3146977417423E-04
(PID.TID 0000.0001) %MON vort_a_mean                  =   9.9999999901566E-05
(PID.TID 0000.0001) %MON vort_a_sd                    =   1.0087615159469E-06
(PID.TID 0000.0001) %MON vort_p_mean                  =   1.1277618377122E-04
(PID.TID 0000.0001) %MON vort_p_sd                    =   7.1113910698800E-05
(PID.TID 0000.0001) %MON surfExpan_theta_mean         =   3.7404601843178E-09
(PID.TID 0000.0001) %MON surfExpan_salt_mean          =  -1.3225242693187E-13
(PID.TID 0000.0001) // =======================================================
(PID.TID 0000.0001) // End MONITOR dynamic field statistics
(PID.TID 0000.0001) // =======================================================
 cg2d: Sum(rhs),rhsMax =  -1.59914037567432E-09  5.67604784243427E-02
(PID.TID 0000.0001)                    cg2d_init_res =    3.03809644615215E+00
(PID.TID 0000.0001)                       cg2d_iters =    90
(PID.TID 0000.0001)                         cg2d_res =    8.40273795275237E-12
(PID.TID 0000.0001) // =======================================================
(PID.TID 0000.0001) // Begin MONITOR dynamic field statistics
(PID.TID 0000.0001) // =======================================================
(PID.TID 0000.0001) %MON time_tsnumber                =                     7
(PID.TID 0000.0001) %MON time_secondsf                =   2.1000000000000E+03
(PID.TID 0000.0001) %MON dynstat_eta_max              =   3.9114519632307E-01
(PID.TID 0000.0001) %MON dynstat_eta_min              =  -1.1699551465926E-01
(PID.TID 0000.0001) %MON dynstat_eta_mean             =   1.0895929522796E-13
(PID.TID 0000.0001) %MON dynstat_eta_sd               =   6.5781258232194E-02
(PID.TID 0000.0001) %MON dynstat_eta_del2             =   1.5461273278887E-05
(PID.TID 0000.0001) %MON dynstat_uvel_max             =   3.1762331008004E-01
(PID.TID 0000.0001) %MON dynstat_uvel_min             =  -2.4212314712192E-01
(PID.TID 0000.0001) %MON dynstat_uvel_mean            =  -1.1803261699965E-03
(PID.TID 0000.0001) %MON dynstat_uvel_sd              =   5.4491473453588E-03
(PID.TID 0000.0001) %MON dynstat_uvel_del2            =   1.3006352625604E-05
(PID.TID 0000.0001) %MON dynstat_vvel_max             =   3.8135209036422E-04
(PID.TID 0000.0001) %MON dynstat_vvel_min             =  -1.9393424916281E+00
(PID.TID 0000.0001) %MON dynstat_vvel_mean            =  -1.3083708580899E-03
(PID.TID 0000.0001) %MON dynstat_vvel_sd              =   1.0815286959441E-02
(PID.TID 0000.0001) %MON dynstat_vvel_del2            =   2.1590516089996E-05
(PID.TID 0000.0001) %MON dynstat_wvel_max             =   2.1414560175817E-02
(PID.TID 0000.0001) %MON dynstat_wvel_min             =  -1.7594331714292E-03
(PID.TID 0000.0001) %MON dynstat_wvel_mean            =  -3.3678774608679E-06
(PID.TID 0000.0001) %MON dynstat_wvel_sd              =   9.2580756898638E-05
(PID.TID 0000.0001) %MON dynstat_wvel_del2            =   5.6409388720378E-07
(PID.TID 0000.0001) %MON dynstat_theta_max            =  -1.9417475728155E-01
(PID.TID 0000.0001) %MON dynstat_theta_min            =  -9.5145631067961E+00
(PID.TID 0000.0001) %MON dynstat_theta_mean           =  -4.1287278292632E+00
(PID.TID 0000.0001) %MON dynstat_theta_sd             =   2.6831171252480E+00
(PID.TID 0000.0001) %MON dynstat_theta_del2           =   1.6943398821803E-04
(PID.TID 0000.0001) %MON dynstat_salt_max             =   1.3535046911565E+00
(PID.TID 0000.0001) %MON dynstat_salt_min             =   1.0000000000000E+00
(PID.TID 0000.0001) %MON dynstat_salt_mean            =   1.0000061042047E+00
(PID.TID 0000.0001) %MON dynstat_salt_sd              =   1.2074720117849E-03
(PID.TID 0000.0001) %MON dynstat_salt_del2            =   2.1243403281335E-05
(PID.TID 0000.0001) %MON advcfl_uvel_max              =   9.5286993024013E-03
(PID.TID 0000.0001) %MON advcfl_vvel_max              =   5.8180274573569E-02
(PID.TID 0000.0001) %MON advcfl_wvel_max              =   4.4613667032951E-02
(PID.TID 0000.0001) %MON advcfl_W_hf_max              =   4.4613667032951E-02
(PID.TID 0000.0001) %MON pe_b_mean                    =   7.9385920139182E-06
(PID.TID 0000.0001) %MON ke_max                       =   1.0916603096424E+00
(PID.TID 0000.0001) %MON ke_mean                      =   5.9871223392165E-05
(PID.TID 0000.0001) %MON ke_vol                       =   2.6917364717940E+15
(PID.TID 0000.0001) %MON vort_r_min                   =  -1.9393424916281E-04
(PID.TID 0000.0001) %MON vort_r_max                   =   1.3058744088463E-04
(PID.TID 0000.0001) %MON vort_a_mean                  =   9.9999999859525E-05
(PID.TID 0000.0001) %MON vort_a_sd                    =   1.0043686190984E-06
(PID.TID 0000.0001) %MON vort_p_mean                  =   1.1277618372381E-04
(PID.TID 0000.0001) %MON vort_p_sd                    =   7.1110390498724E-05
(PID.TID 0000.0001) %MON surfExpan_theta_mean         =   3.3670386399983E-09
(PID.TID 0000.0001) %MON surfExpan_salt_mean          =  -1.6798169848676E-13
(PID.TID 0000.0001) // =======================================================
(PID.TID 0000.0001) // End MONITOR dynamic field statistics
(PID.TID 0000.0001) // =======================================================
 cg2d: Sum(rhs),rhsMax =  -1.49589141074102E-09  5.69253581416456E-02
(PID.TID 0000.0001)                    cg2d_init_res =    2.93424883540690E+00
(PID.TID 0000.0001)                       cg2d_iters =    91
(PID.TID 0000.0001)                         cg2d_res =    7.55364516928611E-12
(PID.TID 0000.0001) // =======================================================
(PID.TID 0000.0001) // Begin MONITOR dynamic field statistics
(PID.TID 0000.0001) // =======================================================
(PID.TID 0000.0001) %MON time_tsnumber                =                     8
(PID.TID 0000.0001) %MON time_secondsf                =   2.4000000000000E+03
(PID.TID 0000.0001) %MON dynstat_eta_max              =   2.6520292404747E-01
(PID.TID 0000.0001) %MON dynstat_eta_min              =  -1.1399764645053E-01
(PID.TID 0000.0001) %MON dynstat_eta_mean             =   1.0178919775443E-13
(PID.TID 0000.0001) %MON dynstat_eta_sd               =   6.4823876420645E-02
(PID.TID 0000.0001) %MON dynstat_eta_del2             =   1.3484931560449E-05
(PID.TID 0000.0001) %MON dynstat_uvel_max             =   3.1851685360139E-01
(PID.TID 0000.0001) %MON dynstat_uvel_min             =  -2.3961392436133E-01
(PID.TID 0000.0001) %MON dynstat_uvel_mean            =  -1.4088844785584E-03
(PID.TID 0000.0001) %MON dynstat_uvel_sd              =   5.5612138514514E-03
(PID.TID 0000.0001) %MON dynstat_uvel_del2            =   1.2738222767614E-05
(PID.TID 0000.0001) %MON dynstat_vvel_max             =   6.1023237716286E-04
(PID.TID 0000.0001) %MON dynstat_vvel_min             =  -1.9393424916281E+00
(PID.TID 0000.0001) %MON dynstat_vvel_mean            =  -1.5561105051720E-03
(PID.TID 0000.0001) %MON dynstat_vvel_sd              =   1.0846707492907E-02
(PID.TID 0000.0001) %MON dynstat_vvel_del2            =   2.1000038291422E-05
(PID.TID 0000.0001) %MON dynstat_wvel_max             =   2.1043305479805E-02
(PID.TID 0000.0001) %MON dynstat_wvel_min             =  -1.6986102829674E-03
(PID.TID 0000.0001) %MON dynstat_wvel_mean            =  -3.3676903199146E-06
(PID.TID 0000.0001) %MON dynstat_wvel_sd              =   9.2559045494418E-05
(PID.TID 0000.0001) %MON dynstat_wvel_del2            =   5.4105908944867E-07
(PID.TID 0000.0001) %MON dynstat_theta_max            =  -1.9417475728155E-01
(PID.TID 0000.0001) %MON dynstat_theta_min            =  -9.5145631067961E+00
(PID.TID 0000.0001) %MON dynstat_theta_mean           =  -4.1287322832739E+00
(PID.TID 0000.0001) %MON dynstat_theta_sd             =   2.6831151286032E+00
(PID.TID 0000.0001) %MON dynstat_theta_del2           =   1.6584691581756E-04
(PID.TID 0000.0001) %MON dynstat_salt_max             =   1.3972421209062E+00
(PID.TID 0000.0001) %MON dynstat_salt_min             =   1.0000000000000E+00
(PID.TID 0000.0001) %MON dynstat_salt_mean            =   1.0000069762339E+00
(PID.TID 0000.0001) %MON dynstat_salt_sd              =   1.3662480220500E-03
(PID.TID 0000.0001) %MON dynstat_salt_del2            =   2.0783939012275E-05
(PID.TID 0000.0001) %MON advcfl_uvel_max              =   9.5555056080416E-03
(PID.TID 0000.0001) %MON advcfl_vvel_max              =   5.8180274573569E-02
(PID.TID 0000.0001) %MON advcfl_wvel_max              =   4.3840219749594E-02
(PID.TID 0000.0001) %MON advcfl_W_hf_max              =   4.3840219749594E-02
(PID.TID 0000.0001) %MON pe_b_mean                    =   7.7091966934797E-06
(PID.TID 0000.0001) %MON ke_max                       =   1.1052866550422E+00
(PID.TID 0000.0001) %MON ke_mean                      =   6.1433414068620E-05
(PID.TID 0000.0001) %MON ke_vol                       =   2.6917364717940E+15
(PID.TID 0000.0001) %MON vort_r_min                   =  -1.9393424916281E-04
(PID.TID 0000.0001) %MON vort_r_max                   =   1.2994610710654E-04
(PID.TID 0000.0001) %MON vort_a_mean                  =   9.9999999812870E-05
(PID.TID 0000.0001) %MON vort_a_sd                    =   1.0006302984250E-06
(PID.TID 0000.0001) %MON vort_p_mean                  =   1.1277618367119E-04
(PID.TID 0000.0001) %MON vort_p_sd                    =   7.1105264438997E-05
(PID.TID 0000.0001) %MON surfExpan_theta_mean         =   3.0631227401897E-09
(PID.TID 0000.0001) %MON surfExpan_salt_mean          =  -2.1979233938673E-13
(PID.TID 0000.0001) // =======================================================
(PID.TID 0000.0001) // End MONITOR dynamic field statistics
(PID.TID 0000.0001) // =======================================================
 cg2d: Sum(rhs),rhsMax =  -1.41793066177343E-09  5.60918569574286E-02
(PID.TID 0000.0001)                    cg2d_init_res =    2.76227828168916E+00
(PID.TID 0000.0001)                       cg2d_iters =    91
(PID.TID 0000.0001)                         cg2d_res =    8.79732430257789E-12
(PID.TID 0000.0001) // =======================================================
(PID.TID 0000.0001) // Begin MONITOR dynamic field statistics
(PID.TID 0000.0001) // =======================================================
(PID.TID 0000.0001) %MON time_tsnumber                =                     9
(PID.TID 0000.0001) %MON time_secondsf                =   2.7000000000000E+03
(PID.TID 0000.0001) %MON dynstat_eta_max              =   2.2686211476016E-01
(PID.TID 0000.0001) %MON dynstat_eta_min              =  -1.1134657231009E-01
(PID.TID 0000.0001) %MON dynstat_eta_mean             =   9.4538688759701E-14
(PID.TID 0000.0001) %MON dynstat_eta_sd               =   6.5795046389215E-02
(PID.TID 0000.0001) %MON dynstat_eta_del2             =   1.4409302078639E-05
(PID.TID 0000.0001) %MON dynstat_uvel_max             =   3.2035381712614E-01
(PID.TID 0000.0001) %MON dynstat_uvel_min             =  -2.3594229631111E-01
(PID.TID 0000.0001) %MON dynstat_uvel_mean            =  -1.6636008326944E-03
(PID.TID 0000.0001) %MON dynstat_uvel_sd              =   5.6305174719903E-03
(PID.TID 0000.0001) %MON dynstat_uvel_del2            =   1.2602091852332E-05
(PID.TID 0000.0001) %MON dynstat_vvel_max             =   8.0687976726366E-04
(PID.TID 0000.0001) %MON dynstat_vvel_min             =  -1.9393424916281E+00
(PID.TID 0000.0001) %MON dynstat_vvel_mean            =  -1.7761550566043E-03
(PID.TID 0000.0001) %MON dynstat_vvel_sd              =   1.0789550390129E-02
(PID.TID 0000.0001) %MON dynstat_vvel_del2            =   2.0391544028200E-05
(PID.TID 0000.0001) %MON dynstat_wvel_max             =   2.0570046457745E-02
(PID.TID 0000.0001) %MON dynstat_wvel_min             =  -1.6409680675895E-03
(PID.TID 0000.0001) %MON dynstat_wvel_mean            =  -3.3674314592799E-06
(PID.TID 0000.0001) %MON dynstat_wvel_sd              =   9.1742556076425E-05
(PID.TID 0000.0001) %MON dynstat_wvel_del2            =   5.1585760555460E-07
(PID.TID 0000.0001) %MON dynstat_theta_max            =  -1.9417475728155E-01
(PID.TID 0000.0001) %MON dynstat_theta_min            =  -9.5145631067961E+00
(PID.TID 0000.0001) %MON dynstat_theta_mean           =  -4.1287367374644E+00
(PID.TID 0000.0001) %MON dynstat_theta_sd             =   2.6831135372079E+00
(PID.TID 0000.0001) %MON dynstat_theta_del2           =   1.6305018124018E-04
(PID.TID 0000.0001) %MON dynstat_salt_max             =   1.4383748340143E+00
(PID.TID 0000.0001) %MON dynstat_salt_min             =   1.0000000000000E+00
(PID.TID 0000.0001) %MON dynstat_salt_mean            =   1.0000078482632E+00
(PID.TID 0000.0001) %MON dynstat_salt_sd              =   1.5196381390503E-03
(PID.TID 0000.0001) %MON dynstat_salt_del2            =   2.0418100987313E-05
(PID.TID 0000.0001) %MON advcfl_uvel_max              =   9.6106145137841E-03
(PID.TID 0000.0001) %MON advcfl_vvel_max              =   5.8180274573569E-02
(PID.TID 0000.0001) %MON advcfl_wvel_max              =   4.2854263453635E-02
(PID.TID 0000.0001) %MON advcfl_W_hf_max              =   4.2854263453635E-02
(PID.TID 0000.0001) %MON pe_b_mean                    =   7.9419203182939E-06
(PID.TID 0000.0001) %MON ke_max                       =   1.1205690107204E+00
(PID.TID 0000.0001) %MON ke_mean                      =   6.1977304173972E-05
(PID.TID 0000.0001) %MON ke_vol                       =   2.6917364717940E+15
(PID.TID 0000.0001) %MON vort_r_min                   =  -1.9393424916281E-04
(PID.TID 0000.0001) %MON vort_r_max                   =   1.2946563384898E-04
(PID.TID 0000.0001) %MON vort_a_mean                  =   9.9999999760566E-05
(PID.TID 0000.0001) %MON vort_a_sd                    =   9.9762216079758E-07
(PID.TID 0000.0001) %MON vort_p_mean                  =   1.1277618361220E-04
(PID.TID 0000.0001) %MON vort_p_sd                    =   7.1098703749265E-05
(PID.TID 0000.0001) %MON surfExpan_theta_mean         =   2.7751865000106E-09
(PID.TID 0000.0001) %MON surfExpan_salt_mean          =  -3.1888777528534E-13
(PID.TID 0000.0001) // =======================================================
(PID.TID 0000.0001) // End MONITOR dynamic field statistics
(PID.TID 0000.0001) // =======================================================
 cg2d: Sum(rhs),rhsMax =  -1.38183509079681E-09  5.34650397240895E-02
(PID.TID 0000.0001)                    cg2d_init_res =    2.70629331636341E+00
(PID.TID 0000.0001)                       cg2d_iters =    91
(PID.TID 0000.0001)                         cg2d_res =    9.28387813159158E-12
(PID.TID 0000.0001) // =======================================================
(PID.TID 0000.0001) // Begin MONITOR dynamic field statistics
(PID.TID 0000.0001) // =======================================================
(PID.TID 0000.0001) %MON time_tsnumber                =                    10
(PID.TID 0000.0001) %MON time_secondsf                =   3.0000000000000E+03
(PID.TID 0000.0001) %MON dynstat_eta_max              =   1.9929036989122E-01
(PID.TID 0000.0001) %MON dynstat_eta_min              =  -1.8097092567148E-01
(PID.TID 0000.0001) %MON dynstat_eta_mean             =   8.8560029008563E-14
(PID.TID 0000.0001) %MON dynstat_eta_sd               =   6.8263215020435E-02
(PID.TID 0000.0001) %MON dynstat_eta_del2             =   1.5143571834147E-05
(PID.TID 0000.0001) %MON dynstat_uvel_max             =   3.2225611054746E-01
(PID.TID 0000.0001) %MON dynstat_uvel_min             =  -2.3113507937134E-01
(PID.TID 0000.0001) %MON dynstat_uvel_mean            =  -1.9516131124160E-03
(PID.TID 0000.0001) %MON dynstat_uvel_sd              =   5.6317670600448E-03
(PID.TID 0000.0001) %MON dynstat_uvel_del2            =   1.2519644455889E-05
(PID.TID 0000.0001) %MON dynstat_vvel_max             =   8.6440431804996E-04
(PID.TID 0000.0001) %MON dynstat_vvel_min             =  -1.9393424916281E+00
(PID.TID 0000.0001) %MON dynstat_vvel_mean            =  -1.9477044450740E-03
(PID.TID 0000.0001) %MON dynstat_vvel_sd              =   1.0671608918527E-02
(PID.TID 0000.0001) %MON dynstat_vvel_del2            =   1.9786663029769E-05
(PID.TID 0000.0001) %MON dynstat_wvel_max             =   2.0035725630738E-02
(PID.TID 0000.0001) %MON dynstat_wvel_min             =  -1.5836774968963E-03
(PID.TID 0000.0001) %MON dynstat_wvel_mean            =  -3.3671348313858E-06
(PID.TID 0000.0001) %MON dynstat_wvel_sd              =   9.0413902098948E-05
(PID.TID 0000.0001) %MON dynstat_wvel_del2            =   4.8952293083597E-07
(PID.TID 0000.0001) %MON dynstat_theta_max            =  -1.9417475728155E-01
(PID.TID 0000.0001) %MON dynstat_theta_min            =  -9.5145631067961E+00
(PID.TID 0000.0001) %MON dynstat_theta_mean           =  -4.1287411918511E+00
(PID.TID 0000.0001) %MON dynstat_theta_sd             =   2.6831122972919E+00
(PID.TID 0000.0001) %MON dynstat_theta_del2           =   1.6095322559868E-04
(PID.TID 0000.0001) %MON dynstat_salt_max             =   1.4770429053167E+00
(PID.TID 0000.0001) %MON dynstat_salt_min             =   1.0000000000000E+00
(PID.TID 0000.0001) %MON dynstat_salt_mean            =   1.0000087202924E+00
(PID.TID 0000.0001) %MON dynstat_salt_sd              =   1.6676246998029E-03
(PID.TID 0000.0001) %MON dynstat_salt_del2            =   2.0135743083006E-05
(PID.TID 0000.0001) %MON advcfl_uvel_max              =   9.6676833164237E-03
(PID.TID 0000.0001) %MON advcfl_vvel_max              =   5.8180274573569E-02
(PID.TID 0000.0001) %MON advcfl_wvel_max              =   4.1741095064038E-02
(PID.TID 0000.0001) %MON advcfl_W_hf_max              =   4.1741095064038E-02
(PID.TID 0000.0001) %MON pe_b_mean                    =   8.5489466658180E-06
(PID.TID 0000.0001) %MON ke_max                       =   1.1373371691741E+00
(PID.TID 0000.0001) %MON ke_mean                      =   6.1620948806983E-05
(PID.TID 0000.0001) %MON ke_vol                       =   2.6917364717940E+15
(PID.TID 0000.0001) %MON vort_r_min                   =  -1.9393424916281E-04
(PID.TID 0000.0001) %MON vort_r_max                   =   1.2905661080613E-04
(PID.TID 0000.0001) %MON vort_a_mean                  =   9.9999999702044E-05
(PID.TID 0000.0001) %MON vort_a_sd                    =   9.9518560266635E-07
(PID.TID 0000.0001) %MON vort_p_mean                  =   1.1277618354620E-04
(PID.TID 0000.0001) %MON vort_p_sd                    =   7.1091147743513E-05
(PID.TID 0000.0001) %MON surfExpan_theta_mean         =   2.3707546363416E-09
(PID.TID 0000.0001) %MON surfExpan_salt_mean          =  -4.5638480958181E-13
(PID.TID 0000.0001) // =======================================================
(PID.TID 0000.0001) // End MONITOR dynamic field statistics
(PID.TID 0000.0001) // =======================================================
(PID.TID 0000.0001) // =======================================================
(PID.TID 0000.0001) // Begin OBCS MONITOR field statistics
(PID.TID 0000.0001) // =======================================================
(PID.TID 0000.0001) %MON obc_time_tsnumber            =                    10
(PID.TID 0000.0001) %MON obc_time_secondsf            =   3.0000000000000E+03
(PID.TID 0000.0001) %MON obc_W_uVel_max               =  -6.2698540593613E-03
(PID.TID 0000.0001) %MON obc_W_uVel_min               =  -6.4304063091287E-03
(PID.TID 0000.0001) %MON obc_W_uVel_mean              =  -6.4163451288665E-03
(PID.TID 0000.0001) %MON obc_W_uVel_sd                =   9.0842975498982E-06
(PID.TID 0000.0001) %MON obc_W_uVel_Int               =  -8.7149433215698E+06
(PID.TID 0000.0001) %MON obc_N_vVel_max               =   0.0000000000000E+00
(PID.TID 0000.0001) %MON obc_N_vVel_min               =  -1.9393424916281E+00
(PID.TID 0000.0001) %MON obc_N_vVel_mean              =  -1.4409628507887E-01
(PID.TID 0000.0001) %MON obc_N_vVel_sd                =   4.1964076465239E-01
(PID.TID 0000.0001) %MON obc_N_vVel_Int               =  -8.7149433215698E+06
(PID.TID 0000.0001) // =======================================================
(PID.TID 0000.0001) // End OBCS MONITOR field statistics
(PID.TID 0000.0001) // =======================================================
 Computing Diagnostic #    114  VISCA4D      Counter:      10   Parms: SM      MR      
 cg2d: Sum(rhs),rhsMax =  -1.38550859674069E-09  4.99539959377971E-02
(PID.TID 0000.0001)                    cg2d_init_res =    2.80368169795564E+00
(PID.TID 0000.0001)                       cg2d_iters =    91
(PID.TID 0000.0001)                         cg2d_res =    8.87145473302978E-12
(PID.TID 0000.0001) // =======================================================
(PID.TID 0000.0001) // Begin MONITOR dynamic field statistics
(PID.TID 0000.0001) // =======================================================
(PID.TID 0000.0001) %MON time_tsnumber                =                    11
(PID.TID 0000.0001) %MON time_secondsf                =   3.3000000000000E+03
(PID.TID 0000.0001) %MON dynstat_eta_max              =   1.7857015361793E-01
(PID.TID 0000.0001) %MON dynstat_eta_min              =  -2.2588462683098E-01
(PID.TID 0000.0001) %MON dynstat_eta_mean             =   8.3928998992189E-14
(PID.TID 0000.0001) %MON dynstat_eta_sd               =   7.1646605795422E-02
(PID.TID 0000.0001) %MON dynstat_eta_del2             =   1.4994747943368E-05
(PID.TID 0000.0001) %MON dynstat_uvel_max             =   3.2351595744432E-01
(PID.TID 0000.0001) %MON dynstat_uvel_min             =  -2.2553445206565E-01
(PID.TID 0000.0001) %MON dynstat_uvel_mean            =  -2.2762859450697E-03
(PID.TID 0000.0001) %MON dynstat_uvel_sd              =   5.5544400673136E-03
(PID.TID 0000.0001) %MON dynstat_uvel_del2            =   1.2426384255781E-05
(PID.TID 0000.0001) %MON dynstat_vvel_max             =   7.3643834119166E-04
(PID.TID 0000.0001) %MON dynstat_vvel_min             =  -1.9393424916281E+00
(PID.TID 0000.0001) %MON dynstat_vvel_mean            =  -2.0523707811629E-03
(PID.TID 0000.0001) %MON dynstat_vvel_sd              =   1.0519190561030E-02
(PID.TID 0000.0001) %MON dynstat_vvel_del2            =   1.9203612387101E-05
(PID.TID 0000.0001) %MON dynstat_wvel_max             =   1.9471087946114E-02
(PID.TID 0000.0001) %MON dynstat_wvel_min             =  -1.5229642623580E-03
(PID.TID 0000.0001) %MON dynstat_wvel_mean            =  -3.3668269971453E-06
(PID.TID 0000.0001) %MON dynstat_wvel_sd              =   8.8742046018201E-05
(PID.TID 0000.0001) %MON dynstat_wvel_del2            =   4.6291067395986E-07
(PID.TID 0000.0001) %MON dynstat_theta_max            =  -1.9417475728155E-01
(PID.TID 0000.0001) %MON dynstat_theta_min            =  -9.5145631067961E+00
(PID.TID 0000.0001) %MON dynstat_theta_mean           =  -4.1287456464189E+00
(PID.TID 0000.0001) %MON dynstat_theta_sd             =   2.6831113434272E+00
(PID.TID 0000.0001) %MON dynstat_theta_del2           =   1.5946105064287E-04
(PID.TID 0000.0001) %MON dynstat_salt_max             =   1.5133760798093E+00
(PID.TID 0000.0001) %MON dynstat_salt_min             =   1.0000000000000E+00
(PID.TID 0000.0001) %MON dynstat_salt_mean            =   1.0000095923217E+00
(PID.TID 0000.0001) %MON dynstat_salt_sd              =   1.8102739834548E-03
(PID.TID 0000.0001) %MON dynstat_salt_del2            =   1.9926568561155E-05
(PID.TID 0000.0001) %MON advcfl_uvel_max              =   9.7054787233295E-03
(PID.TID 0000.0001) %MON advcfl_vvel_max              =   5.8180274573569E-02
(PID.TID 0000.0001) %MON advcfl_wvel_max              =   4.0564766554404E-02
(PID.TID 0000.0001) %MON advcfl_W_hf_max              =   4.0564766554404E-02
(PID.TID 0000.0001) %MON pe_b_mean                    =   9.4173860120946E-06
(PID.TID 0000.0001) %MON ke_max                       =   1.1554872039115E+00
(PID.TID 0000.0001) %MON ke_mean                      =   6.0561590337034E-05
(PID.TID 0000.0001) %MON ke_vol                       =   2.6917364717940E+15
(PID.TID 0000.0001) %MON vort_r_min                   =  -1.9393424916281E-04
(PID.TID 0000.0001) %MON vort_r_max                   =   1.2864551944448E-04
(PID.TID 0000.0001) %MON vort_a_mean                  =   9.9999999606374E-05
(PID.TID 0000.0001) %MON vort_a_sd                    =   9.9312676631676E-07
(PID.TID 0000.0001) %MON vort_p_mean                  =   1.1277618343831E-04
(PID.TID 0000.0001) %MON vort_p_sd                    =   7.1083114027648E-05
(PID.TID 0000.0001) %MON surfExpan_theta_mean         =   1.7552171493414E-09
(PID.TID 0000.0001) %MON surfExpan_salt_mean          =  -5.7309769698623E-13
(PID.TID 0000.0001) // =======================================================
(PID.TID 0000.0001) // End MONITOR dynamic field statistics
(PID.TID 0000.0001) // =======================================================
 cg2d: Sum(rhs),rhsMax =  -1.39249323183321E-09  4.70949253803287E-02
(PID.TID 0000.0001)                    cg2d_init_res =    2.88985472658559E+00
(PID.TID 0000.0001)                       cg2d_iters =    91
(PID.TID 0000.0001)                         cg2d_res =    8.27587962939740E-12
(PID.TID 0000.0001) // =======================================================
(PID.TID 0000.0001) // Begin MONITOR dynamic field statistics
(PID.TID 0000.0001) // =======================================================
(PID.TID 0000.0001) %MON time_tsnumber                =                    12
(PID.TID 0000.0001) %MON time_secondsf                =   3.6000000000000E+03
(PID.TID 0000.0001) %MON dynstat_eta_max              =   1.6255906856286E-01
(PID.TID 0000.0001) %MON dynstat_eta_min              =  -2.2310878669080E-01
(PID.TID 0000.0001) %MON dynstat_eta_mean             =   8.0038933778436E-14
(PID.TID 0000.0001) %MON dynstat_eta_sd               =   7.5428249398850E-02
(PID.TID 0000.0001) %MON dynstat_eta_del2             =   1.4616805584266E-05
(PID.TID 0000.0001) %MON dynstat_uvel_max             =   3.2377489743028E-01
(PID.TID 0000.0001) %MON dynstat_uvel_min             =  -2.1995878437671E-01
(PID.TID 0000.0001) %MON dynstat_uvel_mean            =  -2.6355944985599E-03
(PID.TID 0000.0001) %MON dynstat_uvel_sd              =   5.4060168873463E-03
(PID.TID 0000.0001) %MON dynstat_uvel_del2            =   1.2290724686180E-05
(PID.TID 0000.0001) %MON dynstat_vvel_max             =   7.3062188685866E-04
(PID.TID 0000.0001) %MON dynstat_vvel_min             =  -1.9393424916281E+00
(PID.TID 0000.0001) %MON dynstat_vvel_mean            =  -2.0776074395520E-03
(PID.TID 0000.0001) %MON dynstat_vvel_sd              =   1.0355535676730E-02
(PID.TID 0000.0001) %MON dynstat_vvel_del2            =   1.8658329795898E-05
(PID.TID 0000.0001) %MON dynstat_wvel_max             =   1.8889845886195E-02
(PID.TID 0000.0001) %MON dynstat_wvel_min             =  -1.4597649504428E-03
(PID.TID 0000.0001) %MON dynstat_wvel_mean            =  -3.3665101722075E-06
(PID.TID 0000.0001) %MON dynstat_wvel_sd              =   8.6766126316369E-05
(PID.TID 0000.0001) %MON dynstat_wvel_del2            =   4.3657837998578E-07
(PID.TID 0000.0001) %MON dynstat_theta_max            =  -1.9417475728155E-01
(PID.TID 0000.0001) %MON dynstat_theta_min            =  -9.5145631067961E+00
(PID.TID 0000.0001) %MON dynstat_theta_mean           =  -4.1287501011517E+00
(PID.TID 0000.0001) %MON dynstat_theta_sd             =   2.6831106511839E+00
(PID.TID 0000.0001) %MON dynstat_theta_del2           =   1.5849306840377E-04
(PID.TID 0000.0001) %MON dynstat_salt_max             =   1.5476684190841E+00
(PID.TID 0000.0001) %MON dynstat_salt_min             =   1.0000000000000E+00
(PID.TID 0000.0001) %MON dynstat_salt_mean            =   1.0000104643510E+00
(PID.TID 0000.0001) %MON dynstat_salt_sd              =   1.9474942253895E-03
(PID.TID 0000.0001) %MON dynstat_salt_del2            =   1.9779482284307E-05
(PID.TID 0000.0001) %MON advcfl_uvel_max              =   9.7132469229083E-03
(PID.TID 0000.0001) %MON advcfl_vvel_max              =   5.8180274573569E-02
(PID.TID 0000.0001) %MON advcfl_wvel_max              =   3.9353845596239E-02
(PID.TID 0000.0001) %MON advcfl_W_hf_max              =   3.9353845596239E-02
(PID.TID 0000.0001) %MON pe_b_mean                    =   1.0437757129195E-05
(PID.TID 0000.0001) %MON ke_max                       =   1.1750188646498E+00
(PID.TID 0000.0001) %MON ke_mean                      =   5.9083501153950E-05
(PID.TID 0000.0001) %MON ke_vol                       =   2.6917364717940E+15
(PID.TID 0000.0001) %MON vort_r_min                   =  -1.9393424916281E-04
(PID.TID 0000.0001) %MON vort_r_max                   =   1.2819288219980E-04
(PID.TID 0000.0001) %MON vort_a_mean                  =   9.9999999461616E-05
(PID.TID 0000.0001) %MON vort_a_sd                    =   9.9151691035929E-07
(PID.TID 0000.0001) %MON vort_p_mean                  =   1.1277618327506E-04
(PID.TID 0000.0001) %MON vort_p_sd                    =   7.1075104967371E-05
(PID.TID 0000.0001) %MON surfExpan_theta_mean         =   9.4194507464572E-10
(PID.TID 0000.0001) %MON surfExpan_salt_mean          =  -5.5562567370579E-13
(PID.TID 0000.0001) // =======================================================
(PID.TID 0000.0001) // End MONITOR dynamic field statistics
(PID.TID 0000.0001) // =======================================================
 cg2d: Sum(rhs),rhsMax =  -1.28366650642420E-09  4.87206199511608E-02
(PID.TID 0000.0001)                    cg2d_init_res =    2.62529893193927E+00
(PID.TID 0000.0001)                       cg2d_iters =    90
(PID.TID 0000.0001)                         cg2d_res =    8.87332540383630E-12
(PID.TID 0000.0001) // =======================================================
(PID.TID 0000.0001) // Begin MONITOR dynamic field statistics
(PID.TID 0000.0001) // =======================================================
(PID.TID 0000.0001) %MON time_tsnumber                =                    13
(PID.TID 0000.0001) %MON time_secondsf                =   3.9000000000000E+03
(PID.TID 0000.0001) %MON dynstat_eta_max              =   1.7390632531738E-01
(PID.TID 0000.0001) %MON dynstat_eta_min              =  -1.9629286974075E-01
(PID.TID 0000.0001) %MON dynstat_eta_mean             =   7.5671030467538E-14
(PID.TID 0000.0001) %MON dynstat_eta_sd               =   7.9140725831677E-02
(PID.TID 0000.0001) %MON dynstat_eta_del2             =   1.4530338091131E-05
(PID.TID 0000.0001) %MON dynstat_uvel_max             =   3.2302441804924E-01
(PID.TID 0000.0001) %MON dynstat_uvel_min             =  -2.1539659770849E-01
(PID.TID 0000.0001) %MON dynstat_uvel_mean            =  -3.0222612326178E-03
(PID.TID 0000.0001) %MON dynstat_uvel_sd              =   5.2105757443663E-03
(PID.TID 0000.0001) %MON dynstat_uvel_del2            =   1.2115476536326E-05
(PID.TID 0000.0001) %MON dynstat_vvel_max             =   8.1903655512254E-04
(PID.TID 0000.0001) %MON dynstat_vvel_min             =  -1.9393424916281E+00
(PID.TID 0000.0001) %MON dynstat_vvel_mean            =  -2.0194510187040E-03
(PID.TID 0000.0001) %MON dynstat_vvel_sd              =   1.0200409810492E-02
(PID.TID 0000.0001) %MON dynstat_vvel_del2            =   1.8164750999946E-05
(PID.TID 0000.0001) %MON dynstat_wvel_max             =   1.8289719598048E-02
(PID.TID 0000.0001) %MON dynstat_wvel_min             =  -1.3989915500180E-03
(PID.TID 0000.0001) %MON dynstat_wvel_mean            =  -3.3661953939008E-06
(PID.TID 0000.0001) %MON dynstat_wvel_sd              =   8.4520209712166E-05
(PID.TID 0000.0001) %MON dynstat_wvel_del2            =   4.1085302806930E-07
(PID.TID 0000.0001) %MON dynstat_theta_max            =  -1.9417475728155E-01
(PID.TID 0000.0001) %MON dynstat_theta_min            =  -9.5145631067961E+00
(PID.TID 0000.0001) %MON dynstat_theta_mean           =  -4.1287545560370E+00
(PID.TID 0000.0001) %MON dynstat_theta_sd             =   2.6831102369700E+00
(PID.TID 0000.0001) %MON dynstat_theta_del2           =   1.5800680088836E-04
(PID.TID 0000.0001) %MON dynstat_salt_max             =   1.5807272645369E+00
(PID.TID 0000.0001) %MON dynstat_salt_min             =   1.0000000000000E+00
(PID.TID 0000.0001) %MON dynstat_salt_mean            =   1.0000113363803E+00
(PID.TID 0000.0001) %MON dynstat_salt_sd              =   2.0809919212536E-03
(PID.TID 0000.0001) %MON dynstat_salt_del2            =   1.9690992059832E-05
(PID.TID 0000.0001) %MON advcfl_uvel_max              =   9.6907325414772E-03
(PID.TID 0000.0001) %MON advcfl_vvel_max              =   5.8180274573569E-02
(PID.TID 0000.0001) %MON advcfl_wvel_max              =   3.8103582495933E-02
(PID.TID 0000.0001) %MON advcfl_W_hf_max              =   3.8103582495933E-02
(PID.TID 0000.0001) %MON pe_b_mean                    =   1.1490506919394E-05
(PID.TID 0000.0001) %MON ke_max                       =   1.1960312032377E+00
(PID.TID 0000.0001) %MON ke_mean                      =   5.7539036674230E-05
(PID.TID 0000.0001) %MON ke_vol                       =   2.6917364717940E+15
(PID.TID 0000.0001) %MON vort_r_min                   =  -1.9393424916281E-04
(PID.TID 0000.0001) %MON vort_r_max                   =   1.2769477207394E-04
(PID.TID 0000.0001) %MON vort_a_mean                  =   9.9999999237623E-05
(PID.TID 0000.0001) %MON vort_a_sd                    =   9.9074422338574E-07
(PID.TID 0000.0001) %MON vort_p_mean                  =   1.1277618302245E-04
(PID.TID 0000.0001) %MON vort_p_sd                    =   7.1067569078555E-05
(PID.TID 0000.0001) %MON surfExpan_theta_mean         =   3.6474505913423E-11
(PID.TID 0000.0001) %MON surfExpan_salt_mean          =  -3.2992879140772E-13
(PID.TID 0000.0001) // =======================================================
(PID.TID 0000.0001) // End MONITOR dynamic field statistics
(PID.TID 0000.0001) // =======================================================
 cg2d: Sum(rhs),rhsMax =  -1.20779475309973E-09  4.89706447492078E-02
(PID.TID 0000.0001)                    cg2d_init_res =    2.33525048634760E+00
(PID.TID 0000.0001)                       cg2d_iters =    89
(PID.TID 0000.0001)                         cg2d_res =    9.08245280900235E-12
(PID.TID 0000.0001) // =======================================================
(PID.TID 0000.0001) // Begin MONITOR dynamic field statistics
(PID.TID 0000.0001) // =======================================================
(PID.TID 0000.0001) %MON time_tsnumber                =                    14
(PID.TID 0000.0001) %MON time_secondsf                =   4.2000000000000E+03
(PID.TID 0000.0001) %MON dynstat_eta_max              =   1.6731908902905E-01
(PID.TID 0000.0001) %MON dynstat_eta_min              =  -1.7973059430357E-01
(PID.TID 0000.0001) %MON dynstat_eta_mean             =   6.9869191862480E-14
(PID.TID 0000.0001) %MON dynstat_eta_sd               =   8.2404559163348E-02
(PID.TID 0000.0001) %MON dynstat_eta_del2             =   1.4803681682221E-05
(PID.TID 0000.0001) %MON dynstat_uvel_max             =   3.2148269892066E-01
(PID.TID 0000.0001) %MON dynstat_uvel_min             =  -2.1262406176174E-01
(PID.TID 0000.0001) %MON dynstat_uvel_mean            =  -3.4253415182005E-03
(PID.TID 0000.0001) %MON dynstat_uvel_sd              =   4.9998546606711E-03
(PID.TID 0000.0001) %MON dynstat_uvel_del2            =   1.1922619760102E-05
(PID.TID 0000.0001) %MON dynstat_vvel_max             =   9.4180311622184E-04
(PID.TID 0000.0001) %MON dynstat_vvel_min             =  -1.9393424916281E+00
(PID.TID 0000.0001) %MON dynstat_vvel_mean            =  -1.8837339609254E-03
(PID.TID 0000.0001) %MON dynstat_vvel_sd              =   1.0069463586026E-02
(PID.TID 0000.0001) %MON dynstat_vvel_del2            =   1.7734565234293E-05
(PID.TID 0000.0001) %MON dynstat_wvel_max             =   1.7661545902964E-02
(PID.TID 0000.0001) %MON dynstat_wvel_min             =  -1.3515679888437E-03
(PID.TID 0000.0001) %MON dynstat_wvel_mean            =  -3.3658340776969E-06
(PID.TID 0000.0001) %MON dynstat_wvel_sd              =   8.2112383590209E-05
(PID.TID 0000.0001) %MON dynstat_wvel_del2            =   3.8602075632092E-07
(PID.TID 0000.0001) %MON dynstat_theta_max            =  -1.9417475728155E-01
(PID.TID 0000.0001) %MON dynstat_theta_min            =  -9.5145631067961E+00
(PID.TID 0000.0001) %MON dynstat_theta_mean           =  -4.1287590111176E+00
(PID.TID 0000.0001) %MON dynstat_theta_sd             =   2.6831100747296E+00
(PID.TID 0000.0001) %MON dynstat_theta_del2           =   1.5793314356808E-04
(PID.TID 0000.0001) %MON dynstat_salt_max             =   1.6126305496910E+00
(PID.TID 0000.0001) %MON dynstat_salt_min             =   1.0000000000000E+00
(PID.TID 0000.0001) %MON dynstat_salt_mean            =   1.0000122084095E+00
(PID.TID 0000.0001) %MON dynstat_salt_sd              =   2.2110793448822E-03
(PID.TID 0000.0001) %MON dynstat_salt_del2            =   1.9653534532751E-05
(PID.TID 0000.0001) %MON advcfl_uvel_max              =   9.6444809676199E-03
(PID.TID 0000.0001) %MON advcfl_vvel_max              =   5.8180274573569E-02
(PID.TID 0000.0001) %MON advcfl_wvel_max              =   3.6794887297843E-02
(PID.TID 0000.0001) %MON advcfl_W_hf_max              =   3.6794887297843E-02
(PID.TID 0000.0001) %MON pe_b_mean                    =   1.2457807371301E-05
(PID.TID 0000.0001) %MON ke_max                       =   1.2186436249214E+00
(PID.TID 0000.0001) %MON ke_mean                      =   5.6275367218886E-05
(PID.TID 0000.0001) %MON ke_vol                       =   2.6917364717940E+15
(PID.TID 0000.0001) %MON vort_r_min                   =  -1.9393424916281E-04
(PID.TID 0000.0001) %MON vort_r_max                   =   1.2716939169278E-04
(PID.TID 0000.0001) %MON vort_a_mean                  =   9.9999998899464E-05
(PID.TID 0000.0001) %MON vort_a_sd                    =   9.9127220354524E-07
(PID.TID 0000.0001) %MON vort_p_mean                  =   1.1277618264109E-04
(PID.TID 0000.0001) %MON vort_p_sd                    =   7.1060871243550E-05
(PID.TID 0000.0001) %MON surfExpan_theta_mean         =  -8.1188987784791E-10
(PID.TID 0000.0001) %MON surfExpan_salt_mean          =   8.4963571695719E-14
(PID.TID 0000.0001) // =======================================================
(PID.TID 0000.0001) // End MONITOR dynamic field statistics
(PID.TID 0000.0001) // =======================================================
 cg2d: Sum(rhs),rhsMax =  -1.07754161149387E-09  5.06787301598671E-02
(PID.TID 0000.0001)                    cg2d_init_res =    1.91483362582248E+00
(PID.TID 0000.0001)                       cg2d_iters =    88
(PID.TID 0000.0001)                         cg2d_res =    8.79225720746412E-12
(PID.TID 0000.0001) // =======================================================
(PID.TID 0000.0001) // Begin MONITOR dynamic field statistics
(PID.TID 0000.0001) // =======================================================
(PID.TID 0000.0001) %MON time_tsnumber                =                    15
(PID.TID 0000.0001) %MON time_secondsf                =   4.5000000000000E+03
(PID.TID 0000.0001) %MON dynstat_eta_max              =   1.5147077249285E-01
(PID.TID 0000.0001) %MON dynstat_eta_min              =  -1.5133275377537E-01
(PID.TID 0000.0001) %MON dynstat_eta_mean             =   6.2191786100791E-14
(PID.TID 0000.0001) %MON dynstat_eta_sd               =   8.4985563465133E-02
(PID.TID 0000.0001) %MON dynstat_eta_del2             =   1.5299468273640E-05
(PID.TID 0000.0001) %MON dynstat_uvel_max             =   3.1942936274709E-01
(PID.TID 0000.0001) %MON dynstat_uvel_min             =  -2.1197883800058E-01
(PID.TID 0000.0001) %MON dynstat_uvel_mean            =  -3.8325475306530E-03
(PID.TID 0000.0001) %MON dynstat_uvel_sd              =   4.8026732116115E-03
(PID.TID 0000.0001) %MON dynstat_uvel_del2            =   1.1735330362068E-05
(PID.TID 0000.0001) %MON dynstat_vvel_max             =   1.0393266223788E-03
(PID.TID 0000.0001) %MON dynstat_vvel_min             =  -1.9393424916281E+00
(PID.TID 0000.0001) %MON dynstat_vvel_mean            =  -1.6854114420062E-03
(PID.TID 0000.0001) %MON dynstat_vvel_sd              =   9.9733689523132E-03
(PID.TID 0000.0001) %MON dynstat_vvel_del2            =   1.7377271441834E-05
(PID.TID 0000.0001) %MON dynstat_wvel_max             =   1.6998084113619E-02
(PID.TID 0000.0001) %MON dynstat_wvel_min             =  -1.3179623694462E-03
(PID.TID 0000.0001) %MON dynstat_wvel_mean            =  -3.3654368437180E-06
(PID.TID 0000.0001) %MON dynstat_wvel_sd              =   7.9718248950690E-05
(PID.TID 0000.0001) %MON dynstat_wvel_del2            =   3.6248424949629E-07
(PID.TID 0000.0001) %MON dynstat_theta_max            =  -1.9417475728155E-01
(PID.TID 0000.0001) %MON dynstat_theta_min            =  -9.5145631067961E+00
(PID.TID 0000.0001) %MON dynstat_theta_mean           =  -4.1287634664429E+00
(PID.TID 0000.0001) %MON dynstat_theta_sd             =   2.6831101381295E+00
(PID.TID 0000.0001) %MON dynstat_theta_del2           =   1.5819510962659E-04
(PID.TID 0000.0001) %MON dynstat_salt_max             =   1.6434496397082E+00
(PID.TID 0000.0001) %MON dynstat_salt_min             =   1.0000000000000E+00
(PID.TID 0000.0001) %MON dynstat_salt_mean            =   1.0000130804387E+00
(PID.TID 0000.0001) %MON dynstat_salt_sd              =   2.3378928968100E-03
(PID.TID 0000.0001) %MON dynstat_salt_del2            =   1.9659082545148E-05
(PID.TID 0000.0001) %MON advcfl_uvel_max              =   9.5828808824128E-03
(PID.TID 0000.0001) %MON advcfl_vvel_max              =   5.8180274573569E-02
(PID.TID 0000.0001) %MON advcfl_wvel_max              =   3.5412675236705E-02
(PID.TID 0000.0001) %MON advcfl_W_hf_max              =   3.5412675236705E-02
(PID.TID 0000.0001) %MON pe_b_mean                    =   1.3250413975088E-05
(PID.TID 0000.0001) %MON ke_max                       =   1.2429197619791E+00
(PID.TID 0000.0001) %MON ke_mean                      =   5.5556272153119E-05
(PID.TID 0000.0001) %MON ke_vol                       =   2.6917364717940E+15
(PID.TID 0000.0001) %MON vort_r_min                   =  -1.9393424916281E-04
(PID.TID 0000.0001) %MON vort_r_max                   =   1.2664062200431E-04
(PID.TID 0000.0001) %MON vort_a_mean                  =   9.9999998384029E-05
(PID.TID 0000.0001) %MON vort_a_sd                    =   9.9337514783517E-07
(PID.TID 0000.0001) %MON vort_p_mean                  =   1.1277618205980E-04
(PID.TID 0000.0001) %MON vort_p_sd                    =   7.1055261040490E-05
(PID.TID 0000.0001) %MON surfExpan_theta_mean         =  -1.4629277661637E-09
(PID.TID 0000.0001) %MON surfExpan_salt_mean          =   5.8341690494426E-13
(PID.TID 0000.0001) // =======================================================
(PID.TID 0000.0001) // End MONITOR dynamic field statistics
(PID.TID 0000.0001) // =======================================================
 cg2d: Sum(rhs),rhsMax =  -8.88123352638104E-10  5.47287161622283E-02
(PID.TID 0000.0001)                    cg2d_init_res =    1.44939671541890E+00
(PID.TID 0000.0001)                       cg2d_iters =    88
(PID.TID 0000.0001)                         cg2d_res =    8.07331521961313E-12
(PID.TID 0000.0001) // =======================================================
(PID.TID 0000.0001) // Begin MONITOR dynamic field statistics
(PID.TID 0000.0001) // =======================================================
(PID.TID 0000.0001) %MON time_tsnumber                =                    16
(PID.TID 0000.0001) %MON time_secondsf                =   4.8000000000000E+03
(PID.TID 0000.0001) %MON dynstat_eta_max              =   1.6420679054558E-01
(PID.TID 0000.0001) %MON dynstat_eta_min              =  -1.1571424757578E-01
(PID.TID 0000.0001) %MON dynstat_eta_mean             =   5.9722394595242E-14
(PID.TID 0000.0001) %MON dynstat_eta_sd               =   8.6793605720885E-02
(PID.TID 0000.0001) %MON dynstat_eta_del2             =   1.5863157795854E-05
(PID.TID 0000.0001) %MON dynstat_uvel_max             =   3.1705017457529E-01
(PID.TID 0000.0001) %MON dynstat_uvel_min             =  -2.1334972729413E-01
(PID.TID 0000.0001) %MON dynstat_uvel_mean            =  -4.2325260700385E-03
(PID.TID 0000.0001) %MON dynstat_uvel_sd              =   4.6396849805686E-03
(PID.TID 0000.0001) %MON dynstat_uvel_del2            =   1.1567416693980E-05
(PID.TID 0000.0001) %MON dynstat_vvel_max             =   1.2534279032349E-03
(PID.TID 0000.0001) %MON dynstat_vvel_min             =  -1.9393424916281E+00
(PID.TID 0000.0001) %MON dynstat_vvel_mean            =  -1.4462277626119E-03
(PID.TID 0000.0001) %MON dynstat_vvel_sd              =   9.9172187134364E-03
(PID.TID 0000.0001) %MON dynstat_vvel_del2            =   1.7099635713421E-05
(PID.TID 0000.0001) %MON dynstat_wvel_max             =   1.6298186953958E-02
(PID.TID 0000.0001) %MON dynstat_wvel_min             =  -1.2969735999753E-03
(PID.TID 0000.0001) %MON dynstat_wvel_mean            =  -3.3648889366543E-06
(PID.TID 0000.0001) %MON dynstat_wvel_sd              =   7.7534473098896E-05
(PID.TID 0000.0001) %MON dynstat_wvel_del2            =   3.4081840969341E-07
(PID.TID 0000.0001) %MON dynstat_theta_max            =  -1.9417475728155E-01
(PID.TID 0000.0001) %MON dynstat_theta_min            =  -9.5145631067961E+00
(PID.TID 0000.0001) %MON dynstat_theta_mean           =  -4.1287679221629E+00
(PID.TID 0000.0001) %MON dynstat_theta_sd             =   2.6831103832863E+00
(PID.TID 0000.0001) %MON dynstat_theta_del2           =   1.5870418680519E-04
(PID.TID 0000.0001) %MON dynstat_salt_max             =   1.6732481991087E+00
(PID.TID 0000.0001) %MON dynstat_salt_min             =   1.0000000000000E+00
(PID.TID 0000.0001) %MON dynstat_salt_mean            =   1.0000139524678E+00
(PID.TID 0000.0001) %MON dynstat_salt_sd              =   2.4615616488649E-03
(PID.TID 0000.0001) %MON dynstat_salt_del2            =   1.9699885255223E-05
(PID.TID 0000.0001) %MON advcfl_uvel_max              =   9.5115052372586E-03
(PID.TID 0000.0001) %MON advcfl_vvel_max              =   5.8180274573569E-02
(PID.TID 0000.0001) %MON advcfl_wvel_max              =   3.3954556154079E-02
(PID.TID 0000.0001) %MON advcfl_W_hf_max              =   3.3954556154079E-02
(PID.TID 0000.0001) %MON pe_b_mean                    =   1.3820208411802E-05
(PID.TID 0000.0001) %MON ke_max                       =   1.2688367094574E+00
(PID.TID 0000.0001) %MON ke_mean                      =   5.5528018647763E-05
(PID.TID 0000.0001) %MON ke_vol                       =   2.6917364717940E+15
(PID.TID 0000.0001) %MON vort_r_min                   =  -1.9393424916281E-04
(PID.TID 0000.0001) %MON vort_r_max                   =   1.2612605488232E-04
(PID.TID 0000.0001) %MON vort_a_mean                  =   9.9999997598265E-05
(PID.TID 0000.0001) %MON vort_a_sd                    =   9.9705006845765E-07
(PID.TID 0000.0001) %MON vort_p_mean                  =   1.1277618117364E-04
(PID.TID 0000.0001) %MON vort_p_sd                    =   7.1050848490427E-05
(PID.TID 0000.0001) %MON surfExpan_theta_mean         =  -1.8502169710565E-09
(PID.TID 0000.0001) %MON surfExpan_salt_mean          =   1.0333993356918E-12
(PID.TID 0000.0001) // =======================================================
(PID.TID 0000.0001) // End MONITOR dynamic field statistics
(PID.TID 0000.0001) // =======================================================
 cg2d: Sum(rhs),rhsMax =  -7.94450727426010E-10  5.87504925756255E-02
(PID.TID 0000.0001)                    cg2d_init_res =    1.12895232931713E+00
(PID.TID 0000.0001)                       cg2d_iters =    88
(PID.TID 0000.0001)                         cg2d_res =    8.60168529069105E-12
(PID.TID 0000.0001) // =======================================================
(PID.TID 0000.0001) // Begin MONITOR dynamic field statistics
(PID.TID 0000.0001) // =======================================================
(PID.TID 0000.0001) %MON time_tsnumber                =                    17
(PID.TID 0000.0001) %MON time_secondsf                =   5.1000000000000E+03
(PID.TID 0000.0001) %MON dynstat_eta_max              =   1.6757220401514E-01
(PID.TID 0000.0001) %MON dynstat_eta_min              =  -1.1600837157626E-01
(PID.TID 0000.0001) %MON dynstat_eta_mean             =   6.3380697806813E-14
(PID.TID 0000.0001) %MON dynstat_eta_sd               =   8.7837676579356E-02
(PID.TID 0000.0001) %MON dynstat_eta_del2             =   1.6365709096576E-05
(PID.TID 0000.0001) %MON dynstat_uvel_max             =   3.1447457230369E-01
(PID.TID 0000.0001) %MON dynstat_uvel_min             =  -2.1631932638275E-01
(PID.TID 0000.0001) %MON dynstat_uvel_mean            =  -4.6165156611455E-03
(PID.TID 0000.0001) %MON dynstat_uvel_sd              =   4.5245151965618E-03
(PID.TID 0000.0001) %MON dynstat_uvel_del2            =   1.1422264383928E-05
(PID.TID 0000.0001) %MON dynstat_vvel_max             =   1.5892467220653E-03
(PID.TID 0000.0001) %MON dynstat_vvel_min             =  -1.9393424916281E+00
(PID.TID 0000.0001) %MON dynstat_vvel_mean            =  -1.1913785867307E-03
(PID.TID 0000.0001) %MON dynstat_vvel_sd              =   9.9006365413586E-03
(PID.TID 0000.0001) %MON dynstat_vvel_del2            =   1.6905262050744E-05
(PID.TID 0000.0001) %MON dynstat_wvel_max             =   1.5567939485831E-02
(PID.TID 0000.0001) %MON dynstat_wvel_min             =  -1.2873152311845E-03
(PID.TID 0000.0001) %MON dynstat_wvel_mean            =  -3.3641864758670E-06
(PID.TID 0000.0001) %MON dynstat_wvel_sd              =   7.5729037139510E-05
(PID.TID 0000.0001) %MON dynstat_wvel_del2            =   3.2175302914742E-07
(PID.TID 0000.0001) %MON dynstat_theta_max            =  -1.9417475728155E-01
(PID.TID 0000.0001) %MON dynstat_theta_min            =  -9.5145631067961E+00
(PID.TID 0000.0001) %MON dynstat_theta_mean           =  -4.1287723784296E+00
(PID.TID 0000.0001) %MON dynstat_theta_sd             =   2.6831107932542E+00
(PID.TID 0000.0001) %MON dynstat_theta_del2           =   1.5939953003238E-04
(PID.TID 0000.0001) %MON dynstat_salt_max             =   1.7020809779221E+00
(PID.TID 0000.0001) %MON dynstat_salt_min             =   1.0000000000000E+00
(PID.TID 0000.0001) %MON dynstat_salt_mean            =   1.0000148244969E+00
(PID.TID 0000.0001) %MON dynstat_salt_sd              =   2.5818187837856E-03
(PID.TID 0000.0001) %MON dynstat_salt_del2            =   1.9765841607646E-05
(PID.TID 0000.0001) %MON advcfl_uvel_max              =   9.4342371691108E-03
(PID.TID 0000.0001) %MON advcfl_vvel_max              =   5.8180274573569E-02
(PID.TID 0000.0001) %MON advcfl_wvel_max              =   3.2433207262148E-02
(PID.TID 0000.0001) %MON advcfl_W_hf_max              =   3.2433207262148E-02
(PID.TID 0000.0001) %MON pe_b_mean                    =   1.4154704580440E-05
(PID.TID 0000.0001) %MON ke_max                       =   1.2962714913337E+00
(PID.TID 0000.0001) %MON ke_mean                      =   5.6231656341187E-05
(PID.TID 0000.0001) %MON ke_vol                       =   2.6917364717940E+15
(PID.TID 0000.0001) %MON vort_r_min                   =  -1.9393424916281E-04
(PID.TID 0000.0001) %MON vort_r_max                   =   1.2563223449240E-04
(PID.TID 0000.0001) %MON vort_a_mean                  =   9.9999996489822E-05
(PID.TID 0000.0001) %MON vort_a_sd                    =   1.0020864224973E-06
(PID.TID 0000.0001) %MON vort_p_mean                  =   1.1277617992358E-04
(PID.TID 0000.0001) %MON vort_p_sd                    =   7.1047597162190E-05
(PID.TID 0000.0001) %MON surfExpan_theta_mean         =  -1.9992882712428E-09
(PID.TID 0000.0001) %MON surfExpan_salt_mean          =   1.3431794735267E-12
(PID.TID 0000.0001) // =======================================================
(PID.TID 0000.0001) // End MONITOR dynamic field statistics
(PID.TID 0000.0001) // =======================================================
 cg2d: Sum(rhs),rhsMax =  -7.96573473849094E-10  6.21791880400377E-02
(PID.TID 0000.0001)                    cg2d_init_res =    1.01237881311605E+00
(PID.TID 0000.0001)                       cg2d_iters =    87
(PID.TID 0000.0001)                         cg2d_res =    8.29353698135853E-12
(PID.TID 0000.0001) // =======================================================
(PID.TID 0000.0001) // Begin MONITOR dynamic field statistics
(PID.TID 0000.0001) // =======================================================
(PID.TID 0000.0001) %MON time_tsnumber                =                    18
(PID.TID 0000.0001) %MON time_secondsf                =   5.4000000000000E+03
(PID.TID 0000.0001) %MON dynstat_eta_max              =   1.6161647368550E-01
(PID.TID 0000.0001) %MON dynstat_eta_min              =  -1.1830826699758E-01
(PID.TID 0000.0001) %MON dynstat_eta_mean             =   6.6574845509924E-14
(PID.TID 0000.0001) %MON dynstat_eta_sd               =   8.8183836413823E-02
(PID.TID 0000.0001) %MON dynstat_eta_del2             =   1.6731614189803E-05
(PID.TID 0000.0001) %MON dynstat_uvel_max             =   3.1176568524255E-01
(PID.TID 0000.0001) %MON dynstat_uvel_min             =  -2.2035408036703E-01
(PID.TID 0000.0001) %MON dynstat_uvel_mean            =  -4.9791439661696E-03
(PID.TID 0000.0001) %MON dynstat_uvel_sd              =   4.4666945164474E-03
(PID.TID 0000.0001) %MON dynstat_uvel_del2            =   1.1296451838858E-05
(PID.TID 0000.0001) %MON dynstat_vvel_max             =   1.7704240006511E-03
(PID.TID 0000.0001) %MON dynstat_vvel_min             =  -1.9393424916281E+00
(PID.TID 0000.0001) %MON dynstat_vvel_mean            =  -9.4597612015964E-04
(PID.TID 0000.0001) %MON dynstat_vvel_sd              =   9.9189486182251E-03
(PID.TID 0000.0001) %MON dynstat_vvel_del2            =   1.6794472166313E-05
(PID.TID 0000.0001) %MON dynstat_wvel_max             =   1.4816614403642E-02
(PID.TID 0000.0001) %MON dynstat_wvel_min             =  -1.2862852073118E-03
(PID.TID 0000.0001) %MON dynstat_wvel_mean            =  -3.3632935119594E-06
(PID.TID 0000.0001) %MON dynstat_wvel_sd              =   7.4398000083824E-05
(PID.TID 0000.0001) %MON dynstat_wvel_del2            =   3.0605119486348E-07
(PID.TID 0000.0001) %MON dynstat_theta_max            =  -1.9417475728155E-01
(PID.TID 0000.0001) %MON dynstat_theta_min            =  -9.5145631067961E+00
(PID.TID 0000.0001) %MON dynstat_theta_mean           =  -4.1287768354152E+00
(PID.TID 0000.0001) %MON dynstat_theta_sd             =   2.6831112857448E+00
(PID.TID 0000.0001) %MON dynstat_theta_del2           =   1.6018544420791E-04
(PID.TID 0000.0001) %MON dynstat_salt_max             =   1.7293916447964E+00
(PID.TID 0000.0001) %MON dynstat_salt_min             =   1.0000000000000E+00
(PID.TID 0000.0001) %MON dynstat_salt_mean            =   1.0000156965260E+00
(PID.TID 0000.0001) %MON dynstat_salt_sd              =   2.6983168453122E-03
(PID.TID 0000.0001) %MON dynstat_salt_del2            =   1.9847402644542E-05
(PID.TID 0000.0001) %MON advcfl_uvel_max              =   9.3529705572766E-03
(PID.TID 0000.0001) %MON advcfl_vvel_max              =   5.8180274573569E-02
(PID.TID 0000.0001) %MON advcfl_wvel_max              =   3.0867946674254E-02
(PID.TID 0000.0001) %MON advcfl_W_hf_max              =   3.0867946674254E-02
(PID.TID 0000.0001) %MON pe_b_mean                    =   1.4266489071711E-05
(PID.TID 0000.0001) %MON ke_max                       =   1.3250513570211E+00
(PID.TID 0000.0001) %MON ke_mean                      =   5.7635935442650E-05
(PID.TID 0000.0001) %MON ke_vol                       =   2.6917364717940E+15
(PID.TID 0000.0001) %MON vort_r_min                   =  -1.9393424916281E-04
(PID.TID 0000.0001) %MON vort_r_max                   =   1.2515912495738E-04
(PID.TID 0000.0001) %MON vort_a_mean                  =   9.9999995090383E-05
(PID.TID 0000.0001) %MON vort_a_sd                    =   1.0081982006014E-06
(PID.TID 0000.0001) %MON vort_p_mean                  =   1.1277617834535E-04
(PID.TID 0000.0001) %MON vort_p_sd                    =   7.1045343501273E-05
(PID.TID 0000.0001) %MON surfExpan_theta_mean         =  -1.9839277001554E-09
(PID.TID 0000.0001) %MON surfExpan_salt_mean          =   1.4918550183001E-12
(PID.TID 0000.0001) // =======================================================
(PID.TID 0000.0001) // End MONITOR dynamic field statistics
(PID.TID 0000.0001) // =======================================================
 cg2d: Sum(rhs),rhsMax =  -8.04021738076699E-10  6.47128279578682E-02
(PID.TID 0000.0001)                    cg2d_init_res =    1.05512821281788E+00
(PID.TID 0000.0001)                       cg2d_iters =    87
(PID.TID 0000.0001)                         cg2d_res =    9.40980422876600E-12
(PID.TID 0000.0001) // =======================================================
(PID.TID 0000.0001) // Begin MONITOR dynamic field statistics
(PID.TID 0000.0001) // =======================================================
(PID.TID 0000.0001) %MON time_tsnumber                =                    19
(PID.TID 0000.0001) %MON time_secondsf                =   5.7000000000000E+03
(PID.TID 0000.0001) %MON dynstat_eta_max              =   1.4787427852340E-01
(PID.TID 0000.0001) %MON dynstat_eta_min              =  -1.2037271351144E-01
(PID.TID 0000.0001) %MON dynstat_eta_mean             =   6.7931526803357E-14
(PID.TID 0000.0001) %MON dynstat_eta_sd               =   8.7933079800814E-02
(PID.TID 0000.0001) %MON dynstat_eta_del2             =   1.6936005970705E-05
(PID.TID 0000.0001) %MON dynstat_uvel_max             =   3.0896151555458E-01
(PID.TID 0000.0001) %MON dynstat_uvel_min             =  -2.2495828524171E-01
(PID.TID 0000.0001) %MON dynstat_uvel_mean            =  -5.3184313791484E-03
(PID.TID 0000.0001) %MON dynstat_uvel_sd              =   4.4720419638707E-03
(PID.TID 0000.0001) %MON dynstat_uvel_del2            =   1.1184939371072E-05
(PID.TID 0000.0001) %MON dynstat_vvel_max             =   1.8184533980706E-03
(PID.TID 0000.0001) %MON dynstat_vvel_min             =  -1.9393424916281E+00
(PID.TID 0000.0001) %MON dynstat_vvel_mean            =  -7.3201023580895E-04
(PID.TID 0000.0001) %MON dynstat_vvel_sd              =   9.9651724605933E-03
(PID.TID 0000.0001) %MON dynstat_vvel_del2            =   1.6764352809137E-05
(PID.TID 0000.0001) %MON dynstat_wvel_max             =   1.4054854850332E-02
(PID.TID 0000.0001) %MON dynstat_wvel_min             =  -1.2910174794970E-03
(PID.TID 0000.0001) %MON dynstat_wvel_mean            =  -3.3621683180458E-06
(PID.TID 0000.0001) %MON dynstat_wvel_sd              =   7.3544246764408E-05
(PID.TID 0000.0001) %MON dynstat_wvel_del2            =   2.9438355083018E-07
(PID.TID 0000.0001) %MON dynstat_theta_max            =  -1.9417475728155E-01
(PID.TID 0000.0001) %MON dynstat_theta_min            =  -9.5145631067961E+00
(PID.TID 0000.0001) %MON dynstat_theta_mean           =  -4.1287812933166E+00
(PID.TID 0000.0001) %MON dynstat_theta_sd             =   2.6831117873600E+00
(PID.TID 0000.0001) %MON dynstat_theta_del2           =   1.6093979383661E-04
(PID.TID 0000.0001) %MON dynstat_salt_max             =   1.7545661486066E+00
(PID.TID 0000.0001) %MON dynstat_salt_min             =   1.0000000000000E+00
(PID.TID 0000.0001) %MON dynstat_salt_mean            =   1.0000165685551E+00
(PID.TID 0000.0001) %MON dynstat_salt_sd              =   2.8102248405362E-03
(PID.TID 0000.0001) %MON dynstat_salt_del2            =   1.9927982622298E-05
(PID.TID 0000.0001) %MON advcfl_uvel_max              =   9.2688454666374E-03
(PID.TID 0000.0001) %MON advcfl_vvel_max              =   5.8180274573569E-02
(PID.TID 0000.0001) %MON advcfl_wvel_max              =   2.9280947604859E-02
(PID.TID 0000.0001) %MON advcfl_W_hf_max              =   2.9280947604859E-02
(PID.TID 0000.0001) %MON pe_b_mean                    =   1.4185469004692E-05
(PID.TID 0000.0001) %MON ke_max                       =   1.3549588637802E+00
(PID.TID 0000.0001) %MON ke_mean                      =   5.9668222960771E-05
(PID.TID 0000.0001) %MON ke_vol                       =   2.6917364717940E+15
(PID.TID 0000.0001) %MON vort_r_min                   =  -1.9393424916281E-04
(PID.TID 0000.0001) %MON vort_r_max                   =   1.2470263090463E-04
(PID.TID 0000.0001) %MON vort_a_mean                  =   9.9999993442094E-05
(PID.TID 0000.0001) %MON vort_a_sd                    =   1.0151131314920E-06
(PID.TID 0000.0001) %MON vort_p_mean                  =   1.1277617648647E-04
(PID.TID 0000.0001) %MON vort_p_sd                    =   7.1043834486098E-05
(PID.TID 0000.0001) %MON surfExpan_theta_mean         =  -1.8618669309760E-09
(PID.TID 0000.0001) %MON surfExpan_salt_mean          =   1.5151526906000E-12
(PID.TID 0000.0001) // =======================================================
(PID.TID 0000.0001) // End MONITOR dynamic field statistics
(PID.TID 0000.0001) // =======================================================
 cg2d: Sum(rhs),rhsMax =  -8.01009036877076E-10  6.62892642727180E-02
(PID.TID 0000.0001)                    cg2d_init_res =    1.15071992455089E+00
(PID.TID 0000.0001)                       cg2d_iters =    87
(PID.TID 0000.0001)                         cg2d_res =    8.72792809219674E-12
(PID.TID 0000.0001) // =======================================================
(PID.TID 0000.0001) // Begin MONITOR dynamic field statistics
(PID.TID 0000.0001) // =======================================================
(PID.TID 0000.0001) %MON time_tsnumber                =                    20
(PID.TID 0000.0001) %MON time_secondsf                =   6.0000000000000E+03
(PID.TID 0000.0001) %MON dynstat_eta_max              =   1.6946588802874E-01
(PID.TID 0000.0001) %MON dynstat_eta_min              =  -1.2205317028488E-01
(PID.TID 0000.0001) %MON dynstat_eta_mean             =   7.1084626740414E-14
(PID.TID 0000.0001) %MON dynstat_eta_sd               =   8.7207017028677E-02
(PID.TID 0000.0001) %MON dynstat_eta_del2             =   1.6998551794074E-05
(PID.TID 0000.0001) %MON dynstat_uvel_max             =   3.0611151821274E-01
(PID.TID 0000.0001) %MON dynstat_uvel_min             =  -2.2975611712754E-01
(PID.TID 0000.0001) %MON dynstat_uvel_mean            =  -5.6352459628005E-03
(PID.TID 0000.0001) %MON dynstat_uvel_sd              =   4.5403714024395E-03
(PID.TID 0000.0001) %MON dynstat_uvel_del2            =   1.1084438173028E-05
(PID.TID 0000.0001) %MON dynstat_vvel_max             =   2.0635321291384E-03
(PID.TID 0000.0001) %MON dynstat_vvel_min             =  -1.9393424916281E+00
(PID.TID 0000.0001) %MON dynstat_vvel_mean            =  -5.6622987050064E-04
(PID.TID 0000.0001) %MON dynstat_vvel_sd              =   1.0032232567974E-02
(PID.TID 0000.0001) %MON dynstat_vvel_del2            =   1.6808978687374E-05
(PID.TID 0000.0001) %MON dynstat_wvel_max             =   1.3292039834770E-02
(PID.TID 0000.0001) %MON dynstat_wvel_min             =  -1.2993040736114E-03
(PID.TID 0000.0001) %MON dynstat_wvel_mean            =  -3.3608451218821E-06
(PID.TID 0000.0001) %MON dynstat_wvel_sd              =   7.3092027472846E-05
(PID.TID 0000.0001) %MON dynstat_wvel_del2            =   2.8718399565160E-07
(PID.TID 0000.0001) %MON dynstat_theta_max            =  -1.9417475728155E-01
(PID.TID 0000.0001) %MON dynstat_theta_min            =  -9.5145631067961E+00
(PID.TID 0000.0001) %MON dynstat_theta_mean           =  -4.1287857522990E+00
(PID.TID 0000.0001) %MON dynstat_theta_sd             =   2.6831122849680E+00
(PID.TID 0000.0001) %MON dynstat_theta_del2           =   1.6160989428803E-04
(PID.TID 0000.0001) %MON dynstat_salt_max             =   1.7777281128732E+00
(PID.TID 0000.0001) %MON dynstat_salt_min             =   1.0000000000000E+00
(PID.TID 0000.0001) %MON dynstat_salt_mean            =   1.0000174405842E+00
(PID.TID 0000.0001) %MON dynstat_salt_sd              =   2.9178683783559E-03
(PID.TID 0000.0001) %MON dynstat_salt_del2            =   2.0000974689882E-05
(PID.TID 0000.0001) %MON advcfl_uvel_max              =   9.1833455463822E-03
(PID.TID 0000.0001) %MON advcfl_vvel_max              =   5.8180274573569E-02
(PID.TID 0000.0001) %MON advcfl_wvel_max              =   2.7691749655771E-02
(PID.TID 0000.0001) %MON advcfl_W_hf_max              =   2.8416045550111E-02
(PID.TID 0000.0001) %MON pe_b_mean                    =   1.3952177520824E-05
(PID.TID 0000.0001) %MON ke_max                       =   1.3857620315247E+00
(PID.TID 0000.0001) %MON ke_mean                      =   6.2236975693641E-05
(PID.TID 0000.0001) %MON ke_vol                       =   2.6917364717940E+15
(PID.TID 0000.0001) %MON vort_r_min                   =  -1.9393424916281E-04
(PID.TID 0000.0001) %MON vort_r_max                   =   1.2426035140755E-04
(PID.TID 0000.0001) %MON vort_a_mean                  =   9.9999991594517E-05
(PID.TID 0000.0001) %MON vort_a_sd                    =   1.0226154540798E-06
(PID.TID 0000.0001) %MON vort_p_mean                  =   1.1277617440284E-04
(PID.TID 0000.0001) %MON vort_p_sd                    =   7.1042783826349E-05
(PID.TID 0000.0001) %MON surfExpan_theta_mean         =  -1.6694321618545E-09
(PID.TID 0000.0001) %MON surfExpan_salt_mean          =   1.4598217579120E-12
(PID.TID 0000.0001) // =======================================================
(PID.TID 0000.0001) // End MONITOR dynamic field statistics
(PID.TID 0000.0001) // =======================================================
(PID.TID 0000.0001) // =======================================================
(PID.TID 0000.0001) // Begin OBCS MONITOR field statistics
(PID.TID 0000.0001) // =======================================================
(PID.TID 0000.0001) %MON obc_time_tsnumber            =                    20
(PID.TID 0000.0001) %MON obc_time_secondsf            =   6.0000000000000E+03
(PID.TID 0000.0001) %MON obc_W_uVel_max               =  -4.4148492473845E-03
(PID.TID 0000.0001) %MON obc_W_uVel_min               =  -6.5200997179296E-03
(PID.TID 0000.0001) %MON obc_W_uVel_mean              =  -6.4163451288665E-03
(PID.TID 0000.0001) %MON obc_W_uVel_sd                =   1.0774485699532E-04
(PID.TID 0000.0001) %MON obc_W_uVel_Int               =  -8.7149433215698E+06
(PID.TID 0000.0001) %MON obc_N_vVel_max               =   0.0000000000000E+00
(PID.TID 0000.0001) %MON obc_N_vVel_min               =  -1.9393424916281E+00
(PID.TID 0000.0001) %MON obc_N_vVel_mean              =  -1.4409628507887E-01
(PID.TID 0000.0001) %MON obc_N_vVel_sd                =   4.1964076465239E-01
(PID.TID 0000.0001) %MON obc_N_vVel_Int               =  -8.7149433215698E+06
(PID.TID 0000.0001) // =======================================================
(PID.TID 0000.0001) // End OBCS MONITOR field statistics
(PID.TID 0000.0001) // =======================================================
 Computing Diagnostic #    114  VISCA4D      Counter:      10   Parms: SM      MR      
(PID.TID 0000.0001) %CHECKPOINT        20 ckptA
(PID.TID 0000.0001)   Seconds in section "ALL                    [THE_MODEL_MAIN]":
(PID.TID 0000.0001)           User time:   76.000000000000000
(PID.TID 0000.0001)         System time:  0.14999999999999999
(PID.TID 0000.0001)     Wall clock time:   76.372091054916382
(PID.TID 0000.0001)          No. starts:           1
(PID.TID 0000.0001)           No. stops:           1
(PID.TID 0000.0001)   Seconds in section "INITIALISE_FIXED       [THE_MODEL_MAIN]":
(PID.TID 0000.0001)           User time:  0.41999999999999998
(PID.TID 0000.0001)         System time:  5.00000000000000028E-002
(PID.TID 0000.0001)     Wall clock time:  0.48932194709777832
(PID.TID 0000.0001)          No. starts:           1
(PID.TID 0000.0001)           No. stops:           1
(PID.TID 0000.0001)   Seconds in section "THE_MAIN_LOOP          [THE_MODEL_MAIN]":
(PID.TID 0000.0001)           User time:   75.579999999999998
(PID.TID 0000.0001)         System time:  9.99999999999999917E-002
(PID.TID 0000.0001)     Wall clock time:   75.882710933685303
(PID.TID 0000.0001)          No. starts:           1
(PID.TID 0000.0001)           No. stops:           1
(PID.TID 0000.0001)   Seconds in section "INITIALISE_VARIA    [THE_MAIN_LOOP]":
(PID.TID 0000.0001)           User time:  0.73999999999999999
(PID.TID 0000.0001)         System time:  5.00000000000000028E-002
(PID.TID 0000.0001)     Wall clock time:  0.83118391036987305
(PID.TID 0000.0001)          No. starts:           1
(PID.TID 0000.0001)           No. stops:           1
(PID.TID 0000.0001)   Seconds in section "MAIN LOOP           [THE_MAIN_LOOP]":
(PID.TID 0000.0001)           User time:   74.840000000000003
(PID.TID 0000.0001)         System time:  4.99999999999999889E-002
(PID.TID 0000.0001)     Wall clock time:   75.051496982574463
(PID.TID 0000.0001)          No. starts:           1
(PID.TID 0000.0001)           No. stops:           1
(PID.TID 0000.0001)   Seconds in section "FORWARD_STEP        [THE_MAIN_LOOP]":
(PID.TID 0000.0001)           User time:   74.839999999999989
(PID.TID 0000.0001)         System time:  4.99999999999999750E-002
(PID.TID 0000.0001)     Wall clock time:   75.051303863525391
(PID.TID 0000.0001)          No. starts:          20
(PID.TID 0000.0001)           No. stops:          20
(PID.TID 0000.0001)   Seconds in section "UPDATE_SURF_DR      [FORWARD_STEP]":
(PID.TID 0000.0001)           User time:  0.79999999999999716
(PID.TID 0000.0001)         System time:  9.99999999999999500E-003
(PID.TID 0000.0001)     Wall clock time:  0.79231572151184082
(PID.TID 0000.0001)          No. starts:          40
(PID.TID 0000.0001)           No. stops:          40
(PID.TID 0000.0001)   Seconds in section "DO_STATEVARS_DIAGS  [FORWARD_STEP]":
(PID.TID 0000.0001)           User time:   0.0000000000000000
(PID.TID 0000.0001)         System time:   0.0000000000000000
(PID.TID 0000.0001)     Wall clock time:  1.09910964965820313E-003
(PID.TID 0000.0001)          No. starts:          60
(PID.TID 0000.0001)           No. stops:          60
(PID.TID 0000.0001)   Seconds in section "LOAD_FIELDS_DRIVER  [FORWARD_STEP]":
(PID.TID 0000.0001)           User time:   0.0000000000000000
(PID.TID 0000.0001)         System time:   0.0000000000000000
(PID.TID 0000.0001)     Wall clock time:  5.63144683837890625E-004
(PID.TID 0000.0001)          No. starts:          20
(PID.TID 0000.0001)           No. stops:          20
(PID.TID 0000.0001)   Seconds in section "EXTERNAL_FLDS_LOAD [LOAD_FLDS_DRIVER]":
(PID.TID 0000.0001)           User time:   0.0000000000000000
(PID.TID 0000.0001)         System time:   0.0000000000000000
(PID.TID 0000.0001)     Wall clock time:  1.89542770385742188E-004
(PID.TID 0000.0001)          No. starts:          20
(PID.TID 0000.0001)           No. stops:          20
(PID.TID 0000.0001)   Seconds in section "DO_ATMOSPHERIC_PHYS [FORWARD_STEP]":
(PID.TID 0000.0001)           User time:   0.0000000000000000
(PID.TID 0000.0001)         System time:   0.0000000000000000
(PID.TID 0000.0001)     Wall clock time:  1.82867050170898438E-004
(PID.TID 0000.0001)          No. starts:          20
(PID.TID 0000.0001)           No. stops:          20
(PID.TID 0000.0001)   Seconds in section "DO_OCEANIC_PHYS     [FORWARD_STEP]":
(PID.TID 0000.0001)           User time:  0.54000000000000625
(PID.TID 0000.0001)         System time:   0.0000000000000000
(PID.TID 0000.0001)     Wall clock time:  0.54833149909973145
(PID.TID 0000.0001)          No. starts:          20
(PID.TID 0000.0001)           No. stops:          20
(PID.TID 0000.0001)   Seconds in section "DYNAMICS            [FORWARD_STEP]":
(PID.TID 0000.0001)           User time:   33.950000000000003
(PID.TID 0000.0001)         System time:   0.0000000000000000
(PID.TID 0000.0001)     Wall clock time:   34.031096220016479
(PID.TID 0000.0001)          No. starts:          20
(PID.TID 0000.0001)           No. stops:          20
(PID.TID 0000.0001)   Seconds in section "SOLVE_FOR_PRESSURE  [FORWARD_STEP]":
(PID.TID 0000.0001)           User time:   7.3900000000000290
(PID.TID 0000.0001)         System time:   0.0000000000000000
(PID.TID 0000.0001)     Wall clock time:   7.3935225009918213
(PID.TID 0000.0001)          No. starts:          20
(PID.TID 0000.0001)           No. stops:          20
(PID.TID 0000.0001)   Seconds in section "MOM_CORRECTION_STEP [FORWARD_STEP]":
(PID.TID 0000.0001)           User time:   2.1200000000000045
(PID.TID 0000.0001)         System time:   0.0000000000000000
(PID.TID 0000.0001)     Wall clock time:   2.1387465000152588
(PID.TID 0000.0001)          No. starts:          20
(PID.TID 0000.0001)           No. stops:          20
(PID.TID 0000.0001)   Seconds in section "BLOCKING_EXCHANGES  [FORWARD_STEP]":
(PID.TID 0000.0001)           User time:  0.70999999999997954
(PID.TID 0000.0001)         System time:   0.0000000000000000
(PID.TID 0000.0001)     Wall clock time:  0.71278929710388184
(PID.TID 0000.0001)          No. starts:          40
(PID.TID 0000.0001)           No. stops:          40
(PID.TID 0000.0001)   Seconds in section "THERMODYNAMICS      [FORWARD_STEP]":
(PID.TID 0000.0001)           User time:   21.929999999999978
(PID.TID 0000.0001)         System time:   0.0000000000000000
(PID.TID 0000.0001)     Wall clock time:   21.969545125961304
(PID.TID 0000.0001)          No. starts:          20
(PID.TID 0000.0001)           No. stops:          20
(PID.TID 0000.0001)   Seconds in section "TRC_CORRECTION_STEP [FORWARD_STEP]":
(PID.TID 0000.0001)           User time:  0.35999999999999943
(PID.TID 0000.0001)         System time:   0.0000000000000000
(PID.TID 0000.0001)     Wall clock time:  0.35284328460693359
(PID.TID 0000.0001)          No. starts:          20
(PID.TID 0000.0001)           No. stops:          20
(PID.TID 0000.0001)   Seconds in section "DO_STATEVARS_TAVE   [FORWARD_STEP]":
(PID.TID 0000.0001)           User time:   0.0000000000000000
(PID.TID 0000.0001)         System time:   0.0000000000000000
(PID.TID 0000.0001)     Wall clock time:  1.93357467651367188E-004
(PID.TID 0000.0001)          No. starts:          20
(PID.TID 0000.0001)           No. stops:          20
(PID.TID 0000.0001)   Seconds in section "MONITOR             [FORWARD_STEP]":
(PID.TID 0000.0001)           User time:   6.7899999999999778
(PID.TID 0000.0001)         System time:   0.0000000000000000
(PID.TID 0000.0001)     Wall clock time:   6.8094336986541748
(PID.TID 0000.0001)          No. starts:          20
(PID.TID 0000.0001)           No. stops:          20
(PID.TID 0000.0001)   Seconds in section "DO_THE_MODEL_IO     [FORWARD_STEP]":
(PID.TID 0000.0001)           User time:  0.14000000000000057
(PID.TID 0000.0001)         System time:  2.00000000000000039E-002
(PID.TID 0000.0001)     Wall clock time:  0.17034292221069336
(PID.TID 0000.0001)          No. starts:          20
(PID.TID 0000.0001)           No. stops:          20
(PID.TID 0000.0001)   Seconds in section "DO_WRITE_PICKUP     [FORWARD_STEP]":
(PID.TID 0000.0001)           User time:  0.10999999999999943
(PID.TID 0000.0001)         System time:  1.99999999999999900E-002
(PID.TID 0000.0001)     Wall clock time:  0.12621164321899414
(PID.TID 0000.0001)          No. starts:          20
(PID.TID 0000.0001)           No. stops:          20
(PID.TID 0000.0001) // ======================================================
(PID.TID 0000.0001) // Tile <-> Tile communication statistics
(PID.TID 0000.0001) // ======================================================
(PID.TID 0000.0001) // o Tile number: 000001
(PID.TID 0000.0001) //         No. X exchanges =              0
(PID.TID 0000.0001) //            Max. X spins =              0
(PID.TID 0000.0001) //            Min. X spins =     1000000000
(PID.TID 0000.0001) //          Total. X spins =              0
(PID.TID 0000.0001) //            Avg. X spins =       0.00E+00
(PID.TID 0000.0001) //         No. Y exchanges =              0
(PID.TID 0000.0001) //            Max. Y spins =              0
(PID.TID 0000.0001) //            Min. Y spins =     1000000000
(PID.TID 0000.0001) //          Total. Y spins =              0
(PID.TID 0000.0001) //            Avg. Y spins =       0.00E+00
(PID.TID 0000.0001) // o Tile number: 000002
(PID.TID 0000.0001) //         No. X exchanges =              0
(PID.TID 0000.0001) //            Max. X spins =              0
(PID.TID 0000.0001) //            Min. X spins =     1000000000
(PID.TID 0000.0001) //          Total. X spins =              0
(PID.TID 0000.0001) //            Avg. X spins =       0.00E+00
(PID.TID 0000.0001) //         No. Y exchanges =              0
(PID.TID 0000.0001) //            Max. Y spins =              0
(PID.TID 0000.0001) //            Min. Y spins =     1000000000
(PID.TID 0000.0001) //          Total. Y spins =              0
(PID.TID 0000.0001) //            Avg. Y spins =       0.00E+00
(PID.TID 0000.0001) // o Tile number: 000003
(PID.TID 0000.0001) //         No. X exchanges =              0
(PID.TID 0000.0001) //            Max. X spins =              0
(PID.TID 0000.0001) //            Min. X spins =     1000000000
(PID.TID 0000.0001) //          Total. X spins =              0
(PID.TID 0000.0001) //            Avg. X spins =       0.00E+00
(PID.TID 0000.0001) //         No. Y exchanges =              0
(PID.TID 0000.0001) //            Max. Y spins =              0
(PID.TID 0000.0001) //            Min. Y spins =     1000000000
(PID.TID 0000.0001) //          Total. Y spins =              0
(PID.TID 0000.0001) //            Avg. Y spins =       0.00E+00
(PID.TID 0000.0001) // o Tile number: 000004
(PID.TID 0000.0001) //         No. X exchanges =              0
(PID.TID 0000.0001) //            Max. X spins =              0
(PID.TID 0000.0001) //            Min. X spins =     1000000000
(PID.TID 0000.0001) //          Total. X spins =              0
(PID.TID 0000.0001) //            Avg. X spins =       0.00E+00
(PID.TID 0000.0001) //         No. Y exchanges =              0
(PID.TID 0000.0001) //            Max. Y spins =              0
(PID.TID 0000.0001) //            Min. Y spins =     1000000000
(PID.TID 0000.0001) //          Total. Y spins =              0
(PID.TID 0000.0001) //            Avg. Y spins =       0.00E+00
(PID.TID 0000.0001) // o Tile number: 000005
(PID.TID 0000.0001) //         No. X exchanges =              0
(PID.TID 0000.0001) //            Max. X spins =              0
(PID.TID 0000.0001) //            Min. X spins =     1000000000
(PID.TID 0000.0001) //          Total. X spins =              0
(PID.TID 0000.0001) //            Avg. X spins =       0.00E+00
(PID.TID 0000.0001) //         No. Y exchanges =              0
(PID.TID 0000.0001) //            Max. Y spins =              0
(PID.TID 0000.0001) //            Min. Y spins =     1000000000
(PID.TID 0000.0001) //          Total. Y spins =              0
(PID.TID 0000.0001) //            Avg. Y spins =       0.00E+00
(PID.TID 0000.0001) // o Tile number: 000006
(PID.TID 0000.0001) //         No. X exchanges =              0
(PID.TID 0000.0001) //            Max. X spins =              0
(PID.TID 0000.0001) //            Min. X spins =     1000000000
(PID.TID 0000.0001) //          Total. X spins =              0
(PID.TID 0000.0001) //            Avg. X spins =       0.00E+00
(PID.TID 0000.0001) //         No. Y exchanges =              0
(PID.TID 0000.0001) //            Max. Y spins =              0
(PID.TID 0000.0001) //            Min. Y spins =     1000000000
(PID.TID 0000.0001) //          Total. Y spins =              0
(PID.TID 0000.0001) //            Avg. Y spins =       0.00E+00
(PID.TID 0000.0001) // o Tile number: 000007
(PID.TID 0000.0001) //         No. X exchanges =              0
(PID.TID 0000.0001) //            Max. X spins =              0
(PID.TID 0000.0001) //            Min. X spins =     1000000000
(PID.TID 0000.0001) //          Total. X spins =              0
(PID.TID 0000.0001) //            Avg. X spins =       0.00E+00
(PID.TID 0000.0001) //         No. Y exchanges =              0
(PID.TID 0000.0001) //            Max. Y spins =              0
(PID.TID 0000.0001) //            Min. Y spins =     1000000000
(PID.TID 0000.0001) //          Total. Y spins =              0
(PID.TID 0000.0001) //            Avg. Y spins =       0.00E+00
(PID.TID 0000.0001) // o Tile number: 000008
(PID.TID 0000.0001) //         No. X exchanges =              0
(PID.TID 0000.0001) //            Max. X spins =              0
(PID.TID 0000.0001) //            Min. X spins =     1000000000
(PID.TID 0000.0001) //          Total. X spins =              0
(PID.TID 0000.0001) //            Avg. X spins =       0.00E+00
(PID.TID 0000.0001) //         No. Y exchanges =              0
(PID.TID 0000.0001) //            Max. Y spins =              0
(PID.TID 0000.0001) //            Min. Y spins =     1000000000
(PID.TID 0000.0001) //          Total. Y spins =              0
(PID.TID 0000.0001) //            Avg. Y spins =       0.00E+00
(PID.TID 0000.0001) // o Tile number: 000009
(PID.TID 0000.0001) //         No. X exchanges =              0
(PID.TID 0000.0001) //            Max. X spins =              0
(PID.TID 0000.0001) //            Min. X spins =     1000000000
(PID.TID 0000.0001) //          Total. X spins =              0
(PID.TID 0000.0001) //            Avg. X spins =       0.00E+00
(PID.TID 0000.0001) //         No. Y exchanges =              0
(PID.TID 0000.0001) //            Max. Y spins =              0
(PID.TID 0000.0001) //            Min. Y spins =     1000000000
(PID.TID 0000.0001) //          Total. Y spins =              0
(PID.TID 0000.0001) //            Avg. Y spins =       0.00E+00
(PID.TID 0000.0001) // o Tile number: 000010
(PID.TID 0000.0001) //         No. X exchanges =              0
(PID.TID 0000.0001) //            Max. X spins =              0
(PID.TID 0000.0001) //            Min. X spins =     1000000000
(PID.TID 0000.0001) //          Total. X spins =              0
(PID.TID 0000.0001) //            Avg. X spins =       0.00E+00
(PID.TID 0000.0001) //         No. Y exchanges =              0
(PID.TID 0000.0001) //            Max. Y spins =              0
(PID.TID 0000.0001) //            Min. Y spins =     1000000000
(PID.TID 0000.0001) //          Total. Y spins =              0
(PID.TID 0000.0001) //            Avg. Y spins =       0.00E+00
(PID.TID 0000.0001) // o Tile number: 000011
(PID.TID 0000.0001) //         No. X exchanges =              0
(PID.TID 0000.0001) //            Max. X spins =              0
(PID.TID 0000.0001) //            Min. X spins =     1000000000
(PID.TID 0000.0001) //          Total. X spins =              0
(PID.TID 0000.0001) //            Avg. X spins =       0.00E+00
(PID.TID 0000.0001) //         No. Y exchanges =              0
(PID.TID 0000.0001) //            Max. Y spins =              0
(PID.TID 0000.0001) //            Min. Y spins =     1000000000
(PID.TID 0000.0001) //          Total. Y spins =              0
(PID.TID 0000.0001) //            Avg. Y spins =       0.00E+00
(PID.TID 0000.0001) // o Tile number: 000012
(PID.TID 0000.0001) //         No. X exchanges =              0
(PID.TID 0000.0001) //            Max. X spins =              0
(PID.TID 0000.0001) //            Min. X spins =     1000000000
(PID.TID 0000.0001) //          Total. X spins =              0
(PID.TID 0000.0001) //            Avg. X spins =       0.00E+00
(PID.TID 0000.0001) //         No. Y exchanges =              0
(PID.TID 0000.0001) //            Max. Y spins =              0
(PID.TID 0000.0001) //            Min. Y spins =     1000000000
(PID.TID 0000.0001) //          Total. Y spins =              0
(PID.TID 0000.0001) //            Avg. Y spins =       0.00E+00
(PID.TID 0000.0001) // o Tile number: 000013
(PID.TID 0000.0001) //         No. X exchanges =              0
(PID.TID 0000.0001) //            Max. X spins =              0
(PID.TID 0000.0001) //            Min. X spins =     1000000000
(PID.TID 0000.0001) //          Total. X spins =              0
(PID.TID 0000.0001) //            Avg. X spins =       0.00E+00
(PID.TID 0000.0001) //         No. Y exchanges =              0
(PID.TID 0000.0001) //            Max. Y spins =              0
(PID.TID 0000.0001) //            Min. Y spins =     1000000000
(PID.TID 0000.0001) //          Total. Y spins =              0
(PID.TID 0000.0001) //            Avg. Y spins =       0.00E+00
(PID.TID 0000.0001) // o Tile number: 000014
(PID.TID 0000.0001) //         No. X exchanges =              0
(PID.TID 0000.0001) //            Max. X spins =              0
(PID.TID 0000.0001) //            Min. X spins =     1000000000
(PID.TID 0000.0001) //          Total. X spins =              0
(PID.TID 0000.0001) //            Avg. X spins =       0.00E+00
(PID.TID 0000.0001) //         No. Y exchanges =              0
(PID.TID 0000.0001) //            Max. Y spins =              0
(PID.TID 0000.0001) //            Min. Y spins =     1000000000
(PID.TID 0000.0001) //          Total. Y spins =              0
(PID.TID 0000.0001) //            Avg. Y spins =       0.00E+00
(PID.TID 0000.0001) // o Tile number: 000015
(PID.TID 0000.0001) //         No. X exchanges =              0
(PID.TID 0000.0001) //            Max. X spins =              0
(PID.TID 0000.0001) //            Min. X spins =     1000000000
(PID.TID 0000.0001) //          Total. X spins =              0
(PID.TID 0000.0001) //            Avg. X spins =       0.00E+00
(PID.TID 0000.0001) //         No. Y exchanges =              0
(PID.TID 0000.0001) //            Max. Y spins =              0
(PID.TID 0000.0001) //            Min. Y spins =     1000000000
(PID.TID 0000.0001) //          Total. Y spins =              0
(PID.TID 0000.0001) //            Avg. Y spins =       0.00E+00
(PID.TID 0000.0001) // o Tile number: 000016
(PID.TID 0000.0001) //         No. X exchanges =              0
(PID.TID 0000.0001) //            Max. X spins =              0
(PID.TID 0000.0001) //            Min. X spins =     1000000000
(PID.TID 0000.0001) //          Total. X spins =              0
(PID.TID 0000.0001) //            Avg. X spins =       0.00E+00
(PID.TID 0000.0001) //         No. Y exchanges =              0
(PID.TID 0000.0001) //            Max. Y spins =              0
(PID.TID 0000.0001) //            Min. Y spins =     1000000000
(PID.TID 0000.0001) //          Total. Y spins =              0
(PID.TID 0000.0001) //            Avg. Y spins =       0.00E+00
(PID.TID 0000.0001) // o Tile number: 000017
(PID.TID 0000.0001) //         No. X exchanges =              0
(PID.TID 0000.0001) //            Max. X spins =              0
(PID.TID 0000.0001) //            Min. X spins =     1000000000
(PID.TID 0000.0001) //          Total. X spins =              0
(PID.TID 0000.0001) //            Avg. X spins =       0.00E+00
(PID.TID 0000.0001) //         No. Y exchanges =              0
(PID.TID 0000.0001) //            Max. Y spins =              0
(PID.TID 0000.0001) //            Min. Y spins =     1000000000
(PID.TID 0000.0001) //          Total. Y spins =              0
(PID.TID 0000.0001) //            Avg. Y spins =       0.00E+00
(PID.TID 0000.0001) // o Tile number: 000018
(PID.TID 0000.0001) //         No. X exchanges =              0
(PID.TID 0000.0001) //            Max. X spins =              0
(PID.TID 0000.0001) //            Min. X spins =     1000000000
(PID.TID 0000.0001) //          Total. X spins =              0
(PID.TID 0000.0001) //            Avg. X spins =       0.00E+00
(PID.TID 0000.0001) //         No. Y exchanges =              0
(PID.TID 0000.0001) //            Max. Y spins =              0
(PID.TID 0000.0001) //            Min. Y spins =     1000000000
(PID.TID 0000.0001) //          Total. Y spins =              0
(PID.TID 0000.0001) //            Avg. Y spins =       0.00E+00
(PID.TID 0000.0001) // o Tile number: 000019
(PID.TID 0000.0001) //         No. X exchanges =              0
(PID.TID 0000.0001) //            Max. X spins =              0
(PID.TID 0000.0001) //            Min. X spins =     1000000000
(PID.TID 0000.0001) //          Total. X spins =              0
(PID.TID 0000.0001) //            Avg. X spins =       0.00E+00
(PID.TID 0000.0001) //         No. Y exchanges =              0
(PID.TID 0000.0001) //            Max. Y spins =              0
(PID.TID 0000.0001) //            Min. Y spins =     1000000000
(PID.TID 0000.0001) //          Total. Y spins =              0
(PID.TID 0000.0001) //            Avg. Y spins =       0.00E+00
(PID.TID 0000.0001) // o Tile number: 000020
(PID.TID 0000.0001) //         No. X exchanges =              0
(PID.TID 0000.0001) //            Max. X spins =              0
(PID.TID 0000.0001) //            Min. X spins =     1000000000
(PID.TID 0000.0001) //          Total. X spins =              0
(PID.TID 0000.0001) //            Avg. X spins =       0.00E+00
(PID.TID 0000.0001) //         No. Y exchanges =              0
(PID.TID 0000.0001) //            Max. Y spins =              0
(PID.TID 0000.0001) //            Min. Y spins =     1000000000
(PID.TID 0000.0001) //          Total. Y spins =              0
(PID.TID 0000.0001) //            Avg. Y spins =       0.00E+00
(PID.TID 0000.0001) // o Tile number: 000021
(PID.TID 0000.0001) //         No. X exchanges =              0
(PID.TID 0000.0001) //            Max. X spins =              0
(PID.TID 0000.0001) //            Min. X spins =     1000000000
(PID.TID 0000.0001) //          Total. X spins =              0
(PID.TID 0000.0001) //            Avg. X spins =       0.00E+00
(PID.TID 0000.0001) //         No. Y exchanges =              0
(PID.TID 0000.0001) //            Max. Y spins =              0
(PID.TID 0000.0001) //            Min. Y spins =     1000000000
(PID.TID 0000.0001) //          Total. Y spins =              0
(PID.TID 0000.0001) //            Avg. Y spins =       0.00E+00
(PID.TID 0000.0001) // o Tile number: 000022
(PID.TID 0000.0001) //         No. X exchanges =              0
(PID.TID 0000.0001) //            Max. X spins =              0
(PID.TID 0000.0001) //            Min. X spins =     1000000000
(PID.TID 0000.0001) //          Total. X spins =              0
(PID.TID 0000.0001) //            Avg. X spins =       0.00E+00
(PID.TID 0000.0001) //         No. Y exchanges =              0
(PID.TID 0000.0001) //            Max. Y spins =              0
(PID.TID 0000.0001) //            Min. Y spins =     1000000000
(PID.TID 0000.0001) //          Total. Y spins =              0
(PID.TID 0000.0001) //            Avg. Y spins =       0.00E+00
(PID.TID 0000.0001) // o Tile number: 000023
(PID.TID 0000.0001) //         No. X exchanges =              0
(PID.TID 0000.0001) //            Max. X spins =              0
(PID.TID 0000.0001) //            Min. X spins =     1000000000
(PID.TID 0000.0001) //          Total. X spins =              0
(PID.TID 0000.0001) //            Avg. X spins =       0.00E+00
(PID.TID 0000.0001) //         No. Y exchanges =              0
(PID.TID 0000.0001) //            Max. Y spins =              0
(PID.TID 0000.0001) //            Min. Y spins =     1000000000
(PID.TID 0000.0001) //          Total. Y spins =              0
(PID.TID 0000.0001) //            Avg. Y spins =       0.00E+00
(PID.TID 0000.0001) // o Tile number: 000024
(PID.TID 0000.0001) //         No. X exchanges =              0
(PID.TID 0000.0001) //            Max. X spins =              0
(PID.TID 0000.0001) //            Min. X spins =     1000000000
(PID.TID 0000.0001) //          Total. X spins =              0
(PID.TID 0000.0001) //            Avg. X spins =       0.00E+00
(PID.TID 0000.0001) //         No. Y exchanges =              0
(PID.TID 0000.0001) //            Max. Y spins =              0
(PID.TID 0000.0001) //            Min. Y spins =     1000000000
(PID.TID 0000.0001) //          Total. Y spins =              0
(PID.TID 0000.0001) //            Avg. Y spins =       0.00E+00
(PID.TID 0000.0001) // o Thread number: 000001
(PID.TID 0000.0001) //            No. barriers =          14004
(PID.TID 0000.0001) //      Max. barrier spins =              1
(PID.TID 0000.0001) //      Min. barrier spins =              1
(PID.TID 0000.0001) //     Total barrier spins =          14004
(PID.TID 0000.0001) //      Avg. barrier spins =       1.00E+00
PROGRAM MAIN: Execution ended Normally
