(PID.TID 0000.0001) 
(PID.TID 0000.0001) // ======================================================
(PID.TID 0000.0001) //                      MITgcm UV
(PID.TID 0000.0001) //                      =========
(PID.TID 0000.0001) // ======================================================
(PID.TID 0000.0001) // execution environment starting up...
(PID.TID 0000.0001) 
(PID.TID 0000.0001) // MITgcmUV version:  checkpoint65b
(PID.TID 0000.0001) // Build user:        jmc
(PID.TID 0000.0001) // Build host:        baudelaire
(PID.TID 0000.0001) // Build date:        Mon Aug 18 08:44:44 EDT 2014
(PID.TID 0000.0001) 
(PID.TID 0000.0001) // =======================================================
(PID.TID 0000.0001) // Execution Environment parameter file "eedata"
(PID.TID 0000.0001) // =======================================================
(PID.TID 0000.0001) ># Example "eedata" file
(PID.TID 0000.0001) ># Lines beginning "#" are comments
(PID.TID 0000.0001) ># nTx - No. threads per process in X
(PID.TID 0000.0001) ># nTy - No. threads per process in Y
(PID.TID 0000.0001) > &EEPARMS
(PID.TID 0000.0001) > /
(PID.TID 0000.0001) ># Note: Some systems use & as the
(PID.TID 0000.0001) ># namelist terminator. Other systems
(PID.TID 0000.0001) ># use a / character (as shown here).
(PID.TID 0000.0001) 
(PID.TID 0000.0001) // =======================================================
(PID.TID 0000.0001) // Computational Grid Specification ( see files "SIZE.h" )
(PID.TID 0000.0001) //                                  ( and "eedata"       )
(PID.TID 0000.0001) // =======================================================
(PID.TID 0000.0001)      nPx =    1 ; /* No. processes in X */
(PID.TID 0000.0001)      nPy =    1 ; /* No. processes in Y */
(PID.TID 0000.0001)      nSx =    2 ; /* No. tiles in X per process */
(PID.TID 0000.0001)      nSy =    2 ; /* No. tiles in Y per process */
(PID.TID 0000.0001)      sNx =   40 ; /* Tile size in X */
(PID.TID 0000.0001)      sNy =   21 ; /* Tile size in Y */
(PID.TID 0000.0001)      OLx =    3 ; /* Tile overlap distance in X */
(PID.TID 0000.0001)      OLy =    3 ; /* Tile overlap distance in Y */
(PID.TID 0000.0001)      nTx =    1 ; /* No. threads in X per process */
(PID.TID 0000.0001)      nTy =    1 ; /* No. threads in Y per process */
(PID.TID 0000.0001)       Nr =    8 ; /* No. levels in the vertical   */
(PID.TID 0000.0001)       Nx =   80 ; /* Total domain size in X ( = nPx*nSx*sNx ) */
(PID.TID 0000.0001)       Ny =   42 ; /* Total domain size in Y ( = nPy*nSy*sNy ) */
(PID.TID 0000.0001)   nTiles =    4 ; /* Total no. tiles per process ( = nSx*nSy ) */
(PID.TID 0000.0001)   nProcs =    1 ; /* Total no. processes ( = nPx*nPy ) */
(PID.TID 0000.0001) nThreads =    1 ; /* Total no. threads per process ( = nTx*nTy ) */
(PID.TID 0000.0001) usingMPI =    F ; /* Flag used to control whether MPI is in use */
(PID.TID 0000.0001)                   /*  note: To execute a program with MPI calls */
(PID.TID 0000.0001)                   /*  it must be launched appropriately e.g     */
(PID.TID 0000.0001)                   /*  "mpirun -np 64 ......"                    */
(PID.TID 0000.0001) useCoupler=    F ;/* Flag used to control communications with   */
(PID.TID 0000.0001)                   /*  other model components, through a coupler */
(PID.TID 0000.0001) debugMode =    F ; /* print debug msg. (sequence of S/R calls)  */
(PID.TID 0000.0001) printMapIncludesZeros=    F ; /* print zeros in Std.Output maps */
(PID.TID 0000.0001) maxLengthPrt1D=   65 /* maxLength of 1D array printed to StdOut */
(PID.TID 0000.0001) 
(PID.TID 0000.0001) // ======================================================
(PID.TID 0000.0001) // Mapping of tiles to threads
(PID.TID 0000.0001) // ======================================================
(PID.TID 0000.0001) // -o- Thread   1, tiles (   1:   2,   1:   2)
(PID.TID 0000.0001) 
(PID.TID 0000.0001) // ======================================================
(PID.TID 0000.0001) // Tile <-> Tile connectvity table
(PID.TID 0000.0001) // ======================================================
(PID.TID 0000.0001) // Tile number: 000001 (process no. = 000000)
(PID.TID 0000.0001) //        WEST: Tile = 000002, Process = 000000, Comm = put
(PID.TID 0000.0001) //                bi = 000002, bj = 000001
(PID.TID 0000.0001) //        EAST: Tile = 000002, Process = 000000, Comm = put
(PID.TID 0000.0001) //                bi = 000002, bj = 000001
(PID.TID 0000.0001) //       SOUTH: Tile = 000003, Process = 000000, Comm = put
(PID.TID 0000.0001) //                bi = 000001, bj = 000002
(PID.TID 0000.0001) //       NORTH: Tile = 000003, Process = 000000, Comm = put
(PID.TID 0000.0001) //                bi = 000001, bj = 000002
(PID.TID 0000.0001) // Tile number: 000002 (process no. = 000000)
(PID.TID 0000.0001) //        WEST: Tile = 000001, Process = 000000, Comm = put
(PID.TID 0000.0001) //                bi = 000001, bj = 000001
(PID.TID 0000.0001) //        EAST: Tile = 000001, Process = 000000, Comm = put
(PID.TID 0000.0001) //                bi = 000001, bj = 000001
(PID.TID 0000.0001) //       SOUTH: Tile = 000004, Process = 000000, Comm = put
(PID.TID 0000.0001) //                bi = 000002, bj = 000002
(PID.TID 0000.0001) //       NORTH: Tile = 000004, Process = 000000, Comm = put
(PID.TID 0000.0001) //                bi = 000002, bj = 000002
(PID.TID 0000.0001) // Tile number: 000003 (process no. = 000000)
(PID.TID 0000.0001) //        WEST: Tile = 000004, Process = 000000, Comm = put
(PID.TID 0000.0001) //                bi = 000002, bj = 000002
(PID.TID 0000.0001) //        EAST: Tile = 000004, Process = 000000, Comm = put
(PID.TID 0000.0001) //                bi = 000002, bj = 000002
(PID.TID 0000.0001) //       SOUTH: Tile = 000001, Process = 000000, Comm = put
(PID.TID 0000.0001) //                bi = 000001, bj = 000001
(PID.TID 0000.0001) //       NORTH: Tile = 000001, Process = 000000, Comm = put
(PID.TID 0000.0001) //                bi = 000001, bj = 000001
(PID.TID 0000.0001) // Tile number: 000004 (process no. = 000000)
(PID.TID 0000.0001) //        WEST: Tile = 000003, Process = 000000, Comm = put
(PID.TID 0000.0001) //                bi = 000001, bj = 000002
(PID.TID 0000.0001) //        EAST: Tile = 000003, Process = 000000, Comm = put
(PID.TID 0000.0001) //                bi = 000001, bj = 000002
(PID.TID 0000.0001) //       SOUTH: Tile = 000002, Process = 000000, Comm = put
(PID.TID 0000.0001) //                bi = 000002, bj = 000001
(PID.TID 0000.0001) //       NORTH: Tile = 000002, Process = 000000, Comm = put
(PID.TID 0000.0001) //                bi = 000002, bj = 000001
(PID.TID 0000.0001) 
(PID.TID 0000.0001)  INI_PARMS: opening model parameter file "data"
(PID.TID 0000.0001)  OPEN_COPY_DATA_FILE: opening file data
(PID.TID 0000.0001) // =======================================================
(PID.TID 0000.0001) // Parameter file "data"
(PID.TID 0000.0001) // =======================================================
(PID.TID 0000.0001) ># ====================
(PID.TID 0000.0001) ># | Model parameters |
(PID.TID 0000.0001) ># ====================
(PID.TID 0000.0001) >#
(PID.TID 0000.0001) ># Continuous equation parameters
(PID.TID 0000.0001) > &PARM01
(PID.TID 0000.0001) > tRef= 0.696834, 0.497738, 0.298643, 0.0995477, -0.0995477, -0.298643, -0.497738, -0.696834,
(PID.TID 0000.0001) > sRef= 8*35.,
(PID.TID 0000.0001) > viscAr=1.E-3,
(PID.TID 0000.0001) > viscAh=1.E3,
(PID.TID 0000.0001) >#- put small value (<< stab.limit ~ 3.e10) only to test biharmonic-viscosity
(PID.TID 0000.0001) > viscA4=1.E8,
(PID.TID 0000.0001) > no_slip_sides=.FALSE.,
(PID.TID 0000.0001) > no_slip_bottom=.FALSE.,
(PID.TID 0000.0001) > diffKhT=1.E3,
(PID.TID 0000.0001) > diffKrT=1.E-5,
(PID.TID 0000.0001) > diffKhS=1.E3,
(PID.TID 0000.0001) > diffKrS=1.E-5,
(PID.TID 0000.0001) > saltAdvScheme=4,
(PID.TID 0000.0001) > staggerTimeStep=.TRUE.,
(PID.TID 0000.0001) > eosType='LINEAR',
(PID.TID 0000.0001) > tAlpha=2.E-4,
(PID.TID 0000.0001) > sBeta =0.E-4,
(PID.TID 0000.0001) > gravity=9.81,
(PID.TID 0000.0001) > f0=1.e-4,
(PID.TID 0000.0001) > beta=0.E-11,
(PID.TID 0000.0001) > vectorInvariantMomentum=.TRUE.,
(PID.TID 0000.0001) > selectVortScheme=3,
(PID.TID 0000.0001) > selectKEscheme=2,
(PID.TID 0000.0001) >#nonHydrostatic=.TRUE.,
(PID.TID 0000.0001) > rigidLid=.FALSE.,
(PID.TID 0000.0001) > implicitFreeSurface=.TRUE.,
(PID.TID 0000.0001) > exactConserv=.TRUE.,
(PID.TID 0000.0001) > select_rStar=2,
(PID.TID 0000.0001) > nonlinFreeSurf=4,
(PID.TID 0000.0001) > hFacInf=0.2,
(PID.TID 0000.0001) > hFacSup=2.0,
(PID.TID 0000.0001) > hFacMin=0.2,
(PID.TID 0000.0001) > readBinaryPrec=64,
(PID.TID 0000.0001) >#- not safe to use globalFiles in multi-processors runs
(PID.TID 0000.0001) >#globalFiles=.TRUE.,
(PID.TID 0000.0001) >#useSingleCpuIO=.TRUE.,
(PID.TID 0000.0001) > /
(PID.TID 0000.0001) >
(PID.TID 0000.0001) ># Elliptic solver parameters
(PID.TID 0000.0001) > &PARM02
(PID.TID 0000.0001) > cg2dMaxIters=1000,
(PID.TID 0000.0001) > cg2dTargetResidual=1.E-13,
(PID.TID 0000.0001) > cg3dMaxIters=400,
(PID.TID 0000.0001) > cg3dTargetResidual=1.E-13,
(PID.TID 0000.0001) > /
(PID.TID 0000.0001) >
(PID.TID 0000.0001) ># Time stepping parameters
(PID.TID 0000.0001) > &PARM03
(PID.TID 0000.0001) > nIter0=0,
(PID.TID 0000.0001) > nTimeSteps=10,
(PID.TID 0000.0001) > baseTime=10800.,
(PID.TID 0000.0001) > deltaT=600.0,
(PID.TID 0000.0001) > abEps=0.1,
(PID.TID 0000.0001) > doAB_onGtGs=.FALSE.,
(PID.TID 0000.0001) > momDissip_In_AB=.FALSE.,
(PID.TID 0000.0001) > pChkptFreq=0.0,
(PID.TID 0000.0001) > chkptFreq=0.0,
(PID.TID 0000.0001) > dumpFreq=10800.0,
(PID.TID 0000.0001) > monitorSelect=2,
(PID.TID 0000.0001) > monitorFreq=1.,
(PID.TID 0000.0001) ># for time dependent open boundary conditions, activate the following 3 lines:
(PID.TID 0000.0001) > periodicExternalForcing=.TRUE.,
(PID.TID 0000.0001) > externForcingPeriod=21600.,
(PID.TID 0000.0001) > externForcingCycle =43200.,
(PID.TID 0000.0001) > /
(PID.TID 0000.0001) >
(PID.TID 0000.0001) ># Gridding parameters
(PID.TID 0000.0001) > &PARM04
(PID.TID 0000.0001) > usingCartesianGrid=.TRUE.,
(PID.TID 0000.0001) > delX=80*5.e3,
(PID.TID 0000.0001) > delY=42*5.e3,
(PID.TID 0000.0001) > delR= 8*562.5,
(PID.TID 0000.0001) > /
(PID.TID 0000.0001) >
(PID.TID 0000.0001) ># Input datasets
(PID.TID 0000.0001) > &PARM05
(PID.TID 0000.0001) > bathyFile='topog.bump',
(PID.TID 0000.0001) > /
(PID.TID 0000.0001) 
(PID.TID 0000.0001)  INI_PARMS ; starts to read PARM01
(PID.TID 0000.0001)  INI_PARMS ; read PARM01 : OK
(PID.TID 0000.0001)  INI_PARMS ; starts to read PARM02
(PID.TID 0000.0001)  INI_PARMS ; read PARM02 : OK
(PID.TID 0000.0001)  INI_PARMS ; starts to read PARM03
(PID.TID 0000.0001)  INI_PARMS ; read PARM03 : OK
(PID.TID 0000.0001)  INI_PARMS ; starts to read PARM04
(PID.TID 0000.0001)  INI_PARMS ; read PARM04 : OK
(PID.TID 0000.0001)  INI_PARMS ; starts to read PARM05
(PID.TID 0000.0001)  INI_PARMS ; read PARM05 : OK
(PID.TID 0000.0001)  INI_PARMS: finished reading file "data"
(PID.TID 0000.0001)  PACKAGES_BOOT: opening data.pkg
(PID.TID 0000.0001)  OPEN_COPY_DATA_FILE: opening file data.pkg
(PID.TID 0000.0001) // =======================================================
(PID.TID 0000.0001) // Parameter file "data.pkg"
(PID.TID 0000.0001) // =======================================================
(PID.TID 0000.0001) ># Packages
(PID.TID 0000.0001) > &PACKAGES
(PID.TID 0000.0001) > useOBCS=.TRUE.,
(PID.TID 0000.0001) > usePtracers=.TRUE.,
(PID.TID 0000.0001) > useRBCS=.TRUE.,
(PID.TID 0000.0001) >#useLayers=.TRUE.,
(PID.TID 0000.0001) > /
(PID.TID 0000.0001) 
(PID.TID 0000.0001)  PACKAGES_BOOT: finished reading data.pkg
(PID.TID 0000.0001)  PACKAGES_BOOT: On/Off package Summary
 --------  pkgs with a standard "usePKG" On/Off switch in "data.pkg":  --------
 pkg/obcs                 compiled   and   used ( useOBCS                  = T )
 pkg/ptracers             compiled   and   used ( usePTRACERS              = T )
 pkg/rbcs                 compiled   and   used ( useRBCS                  = T )
 pkg/layers               compiled but not used ( useLayers                = F )
 -------- pkgs without standard "usePKG" On/Off switch in "data.pkg":  --------
 pkg/generic_advdiff      compiled   and   used ( useGAD                   = T )
 pkg/mom_common           compiled   and   used ( momStepping              = T )
 pkg/mom_vecinv           compiled   and   used ( +vectorInvariantMomentum = T )
 pkg/mom_fluxform         compiled but not used ( & not vectorInvariantMom = F )
 pkg/monitor              compiled   and   used ( monitorFreq > 0.         = T )
 pkg/debug                compiled but not used ( debugMode                = F )
 pkg/rw                   compiled   and   used
 pkg/mdsio                compiled   and   used
(PID.TID 0000.0001)  PACKAGES_BOOT: End of package Summary
(PID.TID 0000.0001) 
(PID.TID 0000.0001)  OBCS_READPARMS: opening data.obcs
(PID.TID 0000.0001)  OPEN_COPY_DATA_FILE: opening file data.obcs
(PID.TID 0000.0001) // =======================================================
(PID.TID 0000.0001) // Parameter file "data.obcs"
(PID.TID 0000.0001) // =======================================================
(PID.TID 0000.0001) ># Open-boundaries
(PID.TID 0000.0001) > &OBCS_PARM01
(PID.TID 0000.0001) ># This flag turns off checking and fixing problematic topography across
(PID.TID 0000.0001) ># open boundaries.
(PID.TID 0000.0001) > OBCSfixTopo=.FALSE.,
(PID.TID 0000.0001) > OB_Jnorth= 80*-1,
(PID.TID 0000.0001) > OB_Jsouth= 80*1,
(PID.TID 0000.0001) > OB_Ieast = 42*-1,
(PID.TID 0000.0001) > OB_Iwest = 42*1,
(PID.TID 0000.0001) > useOBCSprescribe = .TRUE.,
(PID.TID 0000.0001) > OBNuFile = 'OBmeridU.bin',
(PID.TID 0000.0001) > OBSuFile = 'OBmeridU.bin',
(PID.TID 0000.0001) > OBWuFile = 'OB_WestU.bin',
(PID.TID 0000.0001) > OBEuFile = 'OB_EastU.bin',
(PID.TID 0000.0001) > OBWetaFile='OB_WestH.bin',
(PID.TID 0000.0001) > OBEetaFile='OB_EastH.bin',
(PID.TID 0000.0001) > OBWsFile = 'OBzonalS.bin',
(PID.TID 0000.0001) > OBWptrFile(1) = 'OBzonalS.bin',
(PID.TID 0000.0001) > OBCS_monitorFreq= 1200.,
(PID.TID 0000.0001) > OBCS_monSelect = 1,
(PID.TID 0000.0001) > /
(PID.TID 0000.0001) >
(PID.TID 0000.0001) ># Orlanski parameters
(PID.TID 0000.0001) > &OBCS_PARM02
(PID.TID 0000.0001) >#Cmax=0.45,
(PID.TID 0000.0001) >#cVelTimeScale=1000.,
(PID.TID 0000.0001) > /
(PID.TID 0000.0001) 
(PID.TID 0000.0001)  OBCS_READPARMS: finished reading data.obcs
(PID.TID 0000.0001)  OB_indexUnset = /* unset OB index value (i.e. no OB) */
(PID.TID 0000.0001)                       0
(PID.TID 0000.0001)     ;
(PID.TID 0000.0001)  Northern OB global indices : OB_Jnorth =
(PID.TID 0000.0001)    80 @       42                            /* I =  1: 80 */
(PID.TID 0000.0001)  Southern OB global indices : OB_Jsouth =
(PID.TID 0000.0001)    80 @        1                            /* I =  1: 80 */
(PID.TID 0000.0001)  Eastern  OB global indices : OB_Ieast =
(PID.TID 0000.0001)    42 @       80                            /* J =  1: 42 */
(PID.TID 0000.0001)  Western  OB global indices : OB_Iwest =
(PID.TID 0000.0001)    42 @        1                            /* J =  1: 42 */
(PID.TID 0000.0001) 
(PID.TID 0000.0001)  PTRACERS_READPARMS: opening data.ptracers
(PID.TID 0000.0001)  OPEN_COPY_DATA_FILE: opening file data.ptracers
(PID.TID 0000.0001) // =======================================================
(PID.TID 0000.0001) // Parameter file "data.ptracers"
(PID.TID 0000.0001) // =======================================================
(PID.TID 0000.0001) ># This set-up is supposed to mimic salinity. That is, initially
(PID.TID 0000.0001) ># PTRACER(:,:,:,1) is identical to salinity, except that
(PID.TID 0000.0001) ># 1) the default (i.e., not explicitly specified) open boundary conditions
(PID.TID 0000.0001) ># are different, so that PTRACER(:,:,:,1) evolves differently than salinity.
(PID.TID 0000.0001) ># 2) a weak relaxation is applied in the Eastern part of the channel (using rbcs).
(PID.TID 0000.0001) > &PTRACERS_PARM01
(PID.TID 0000.0001) > PTRACERS_numInUse=1,
(PID.TID 0000.0001) >#- use F95 syntax (to be converted with -DNML_EXTENDED_F77 if needed)
(PID.TID 0000.0001) > PTRACERS_ref(1:8,1) = 8*35.,
(PID.TID 0000.0001) > PTRACERS_names(1)='salt_mimic',
(PID.TID 0000.0001) > PTRACERS_advScheme(1)=4,
(PID.TID 0000.0001) > /
(PID.TID 0000.0001) 
(PID.TID 0000.0001)  PTRACERS_READPARMS: finished reading data.ptracers
(PID.TID 0000.0001)  RBCS_READPARMS: opening data.rbcs
(PID.TID 0000.0001)  OPEN_COPY_DATA_FILE: opening file data.rbcs
(PID.TID 0000.0001) // =======================================================
(PID.TID 0000.0001) // Parameter file "data.rbcs"
(PID.TID 0000.0001) // =======================================================
(PID.TID 0000.0001) ># RBCS package parameters:
(PID.TID 0000.0001) > &RBCS_PARM01
(PID.TID 0000.0001) >#   tauRelaxT=864000.,
(PID.TID 0000.0001) >    tauRelaxS=864000.,
(PID.TID 0000.0001) >#   relaxMaskFile='rbcs_mask_T.bin','rbcs_mask_S.bin',
(PID.TID 0000.0001) >    relaxMaskFile(3)='rbcs_mask.bin',
(PID.TID 0000.0001) >#   relaxTFile='sponge_temp.bin',
(PID.TID 0000.0001) >#   relaxSFile='rbcs_Tr1_fld.bin',
(PID.TID 0000.0001) >#   useRBCtemp=.TRUE.,
(PID.TID 0000.0001) >#   useRBCsalt=.TRUE.,
(PID.TID 0000.0001) >#   rbcsForcingOffset=43200,
(PID.TID 0000.0001) >#   rbcsForcingPeriod=2592000.,
(PID.TID 0000.0001) >#   rbcsForcingCycle=31104000.,
(PID.TID 0000.0001) > /
(PID.TID 0000.0001) >
(PID.TID 0000.0001) ># RBCS for pTracers (read this namelist only when ptracers pkg is compiled)
(PID.TID 0000.0001) > &RBCS_PARM02
(PID.TID 0000.0001) >  useRBCptrnum(1)    = .TRUE.,
(PID.TID 0000.0001) >  tauRelaxPTR(1)     = 21600.,
(PID.TID 0000.0001) >  relaxPtracerFile(1)='rbcs_Tr1_fld.bin',
(PID.TID 0000.0001) > /
(PID.TID 0000.0001) 
(PID.TID 0000.0001)  RBCS_READPARMS: finished reading data.rbcs
(PID.TID 0000.0001) SET_PARMS: done
(PID.TID 0000.0001) Enter INI_VERTICAL_GRID: setInterFDr=    T ; setCenterDr=    F
(PID.TID 0000.0001) %MON XC_max                       =   3.9750000000000E+05
(PID.TID 0000.0001) %MON XC_min                       =   2.5000000000000E+03
(PID.TID 0000.0001) %MON XC_mean                      =   2.0000000000000E+05
(PID.TID 0000.0001) %MON XC_sd                        =   1.1546103238755E+05
(PID.TID 0000.0001) %MON XG_max                       =   3.9500000000000E+05
(PID.TID 0000.0001) %MON XG_min                       =   0.0000000000000E+00
(PID.TID 0000.0001) %MON XG_mean                      =   1.9750000000000E+05
(PID.TID 0000.0001) %MON XG_sd                        =   1.1546103238755E+05
(PID.TID 0000.0001) %MON DXC_max                      =   5.0000000000000E+03
(PID.TID 0000.0001) %MON DXC_min                      =   5.0000000000000E+03
(PID.TID 0000.0001) %MON DXC_mean                     =   5.0000000000000E+03
(PID.TID 0000.0001) %MON DXC_sd                       =   0.0000000000000E+00
(PID.TID 0000.0001) %MON DXF_max                      =   5.0000000000000E+03
(PID.TID 0000.0001) %MON DXF_min                      =   5.0000000000000E+03
(PID.TID 0000.0001) %MON DXF_mean                     =   5.0000000000000E+03
(PID.TID 0000.0001) %MON DXF_sd                       =   0.0000000000000E+00
(PID.TID 0000.0001) %MON DXG_max                      =   5.0000000000000E+03
(PID.TID 0000.0001) %MON DXG_min                      =   5.0000000000000E+03
(PID.TID 0000.0001) %MON DXG_mean                     =   5.0000000000000E+03
(PID.TID 0000.0001) %MON DXG_sd                       =   0.0000000000000E+00
(PID.TID 0000.0001) %MON DXV_max                      =   5.0000000000000E+03
(PID.TID 0000.0001) %MON DXV_min                      =   5.0000000000000E+03
(PID.TID 0000.0001) %MON DXV_mean                     =   5.0000000000000E+03
(PID.TID 0000.0001) %MON DXV_sd                       =   0.0000000000000E+00
(PID.TID 0000.0001) %MON YC_max                       =   2.0750000000000E+05
(PID.TID 0000.0001) %MON YC_min                       =   2.5000000000000E+03
(PID.TID 0000.0001) %MON YC_mean                      =   1.0500000000000E+05
(PID.TID 0000.0001) %MON YC_sd                        =   6.0604592785256E+04
(PID.TID 0000.0001) %MON YG_max                       =   2.0500000000000E+05
(PID.TID 0000.0001) %MON YG_min                       =   0.0000000000000E+00
(PID.TID 0000.0001) %MON YG_mean                      =   1.0250000000000E+05
(PID.TID 0000.0001) %MON YG_sd                        =   6.0604592785256E+04
(PID.TID 0000.0001) %MON DYC_max                      =   5.0000000000000E+03
(PID.TID 0000.0001) %MON DYC_min                      =   5.0000000000000E+03
(PID.TID 0000.0001) %MON DYC_mean                     =   5.0000000000000E+03
(PID.TID 0000.0001) %MON DYC_sd                       =   0.0000000000000E+00
(PID.TID 0000.0001) %MON DYF_max                      =   5.0000000000000E+03
(PID.TID 0000.0001) %MON DYF_min                      =   5.0000000000000E+03
(PID.TID 0000.0001) %MON DYF_mean                     =   5.0000000000000E+03
(PID.TID 0000.0001) %MON DYF_sd                       =   0.0000000000000E+00
(PID.TID 0000.0001) %MON DYG_max                      =   5.0000000000000E+03
(PID.TID 0000.0001) %MON DYG_min                      =   5.0000000000000E+03
(PID.TID 0000.0001) %MON DYG_mean                     =   5.0000000000000E+03
(PID.TID 0000.0001) %MON DYG_sd                       =   0.0000000000000E+00
(PID.TID 0000.0001) %MON DYU_max                      =   5.0000000000000E+03
(PID.TID 0000.0001) %MON DYU_min                      =   5.0000000000000E+03
(PID.TID 0000.0001) %MON DYU_mean                     =   5.0000000000000E+03
(PID.TID 0000.0001) %MON DYU_sd                       =   0.0000000000000E+00
(PID.TID 0000.0001) %MON RA_max                       =   2.5000000000000E+07
(PID.TID 0000.0001) %MON RA_min                       =   2.5000000000000E+07
(PID.TID 0000.0001) %MON RA_mean                      =   2.5000000000000E+07
(PID.TID 0000.0001) %MON RA_sd                        =   3.7252902984619E-09
(PID.TID 0000.0001) %MON RAW_max                      =   2.5000000000000E+07
(PID.TID 0000.0001) %MON RAW_min                      =   2.5000000000000E+07
(PID.TID 0000.0001) %MON RAW_mean                     =   2.5000000000000E+07
(PID.TID 0000.0001) %MON RAW_sd                       =   3.7252902984619E-09
(PID.TID 0000.0001) %MON RAS_max                      =   2.5000000000000E+07
(PID.TID 0000.0001) %MON RAS_min                      =   2.5000000000000E+07
(PID.TID 0000.0001) %MON RAS_mean                     =   2.5000000000000E+07
(PID.TID 0000.0001) %MON RAS_sd                       =   3.7252902984619E-09
(PID.TID 0000.0001) %MON RAZ_max                      =   2.5000000000000E+07
(PID.TID 0000.0001) %MON RAZ_min                      =   2.5000000000000E+07
(PID.TID 0000.0001) %MON RAZ_mean                     =   2.5000000000000E+07
(PID.TID 0000.0001) %MON RAZ_sd                       =   3.7252902984619E-09
(PID.TID 0000.0001) %MON AngleCS_max                  =   1.0000000000000E+00
(PID.TID 0000.0001) %MON AngleCS_min                  =   1.0000000000000E+00
(PID.TID 0000.0001) %MON AngleCS_mean                 =   1.0000000000000E+00
(PID.TID 0000.0001) %MON AngleCS_sd                   =   0.0000000000000E+00
(PID.TID 0000.0001) %MON AngleSN_max                  =   0.0000000000000E+00
(PID.TID 0000.0001) %MON AngleSN_min                  =   0.0000000000000E+00
(PID.TID 0000.0001) %MON AngleSN_mean                 =   0.0000000000000E+00
(PID.TID 0000.0001) %MON AngleSN_sd                   =   0.0000000000000E+00
(PID.TID 0000.0001)  MDS_READ_FIELD: opening global file: topog.bump
(PID.TID 0000.0001) // =======================================================
(PID.TID 0000.0001) // Field Model R_low (ini_masks_etc)
(PID.TID 0000.0001) // CMIN =         -4.500000000000000E+03
(PID.TID 0000.0001) // CMAX =         -4.902981733158691E+02
(PID.TID 0000.0001) // CINT =          1.485074750623752E+02
(PID.TID 0000.0001) // SYMBOLS (CMIN->CMAX): -abcdefghijklmnopqrstuvwxyz+
(PID.TID 0000.0001) //                  0.0: .
(PID.TID 0000.0001) // RANGE I (Lo:Hi:Step):(    -2:    83:     1)
(PID.TID 0000.0001) // RANGE J (Lo:Hi:Step):(    45:    -2:    -1)
(PID.TID 0000.0001) // RANGE K (Lo:Hi:Step):(   1:   1:   1)
(PID.TID 0000.0001) // =======================================================
(PID.TID 0000.0001) K =   1
(PID.TID 0000.0001) //                I=7       I=17      I=27      I=37      I=41      I=51      I=61      I=71      I=81
(PID.TID 0000.0001) // |--J--|210123456|890123456|890123456|890123456|890123890|234567890|234567890|234567890|234567890|23
(PID.TID 0000.0001) //     45 --------------------------------------------------------------------------------------------
(PID.TID 0000.0001) //     44 --------------------------------------------------------------------------------------------
(PID.TID 0000.0001) //     43 --------------------------------------------------------------------------------------------
(PID.TID 0000.0001) //     42 --------------------------------------------------------------------------------------------
(PID.TID 0000.0001) //     41 --------------------------------------------------------------------------------------------
(PID.TID 0000.0001) //     40 --------------------------------------------------------------------------------------------
(PID.TID 0000.0001) //     39 --------------------------------------------------------------------------------------------
(PID.TID 0000.0001) //     38 --------------------------------------------------------------------------------------------
(PID.TID 0000.0001) //     37 --------------------------------------------------------------------------------------------
(PID.TID 0000.0001) //     36 --------------------------------------------------------------------------------------------
(PID.TID 0000.0001) //     35 ---------------------------------------aaaaaaaaaaaaaa---------------------------------------
(PID.TID 0000.0001) //     34 ------------------------------------aaaaaaaaaaaaaaaaaaaa------------------------------------
(PID.TID 0000.0001) //     33 -----------------------------------aaaabbbbbbbbbbbbbbaaaa-----------------------------------
(PID.TID 0000.0001) //     32 ----------------------------------aaabbbccccccccccccbbbaaa----------------------------------
(PID.TID 0000.0001) //     31 ---------------------------------aaabbcddddddddddddddcbbaaa---------------------------------
(PID.TID 0000.0001) //     30 --------------------------------aabbcddeffffffffffffeddcbbaa--------------------------------
(PID.TID 0000.0001) //     29 -------------------------------aaabcdefghhiihhhhiihhgfedcbaaa-------------------------------
(PID.TID 0000.0001) //     28 ------------------------------aaabcdefhijkllkjjkllkjihfedcbaaa------------------------------
(PID.TID 0000.0001) //     27 ------------------------------aabbdefhjlmnoonmmnoonmljhfedbbaa------------------------------
(PID.TID 0000.0001) //     26 ------------------------------aabcdfhjlnpqrrqppqrrqpnljhfdcbaa------------------------------
(PID.TID 0000.0001) //     25 -----------------------------aabbdegilnqstuutsstuutsqnligedbbaa-----------------------------
(PID.TID 0000.0001) //     24 -----------------------------aabcdfhjmpsuwxxwuuwxxwuspmjhfdcbaa-----------------------------
(PID.TID 0000.0001) //     23 -----------------------------aabcdfhknqtwyzzywwyzzywtqnkhfdcbaa-----------------------------
(PID.TID 0000.0001) //     22 -----------------------------aabcdfiloruxz++zxxz++zxurolifdcbaa-----------------------------
(PID.TID 0000.0001) //     21 -----------------------------aabcdfiloruxz++zxxz++zxurolifdcbaa-----------------------------
(PID.TID 0000.0001) //     20 -----------------------------aabcdfhknqtwyzzywwyzzywtqnkhfdcbaa-----------------------------
(PID.TID 0000.0001) //     19 -----------------------------aabcdfhjmpsuwxxwuuwxxwuspmjhfdcbaa-----------------------------
(PID.TID 0000.0001) //     24 -----------------------------aabcdfhjmpsuwxxwuuwxxwuspmjhfdcbaa-----------------------------
(PID.TID 0000.0001) //     23 -----------------------------aabcdfhknqtwyzzywwyzzywtqnkhfdcbaa-----------------------------
(PID.TID 0000.0001) //     22 -----------------------------aabcdfiloruxz++zxxz++zxurolifdcbaa-----------------------------
(PID.TID 0000.0001) //     21 -----------------------------aabcdfiloruxz++zxxz++zxurolifdcbaa-----------------------------
(PID.TID 0000.0001) //     20 -----------------------------aabcdfhknqtwyzzywwyzzywtqnkhfdcbaa-----------------------------
(PID.TID 0000.0001) //     19 -----------------------------aabcdfhjmpsuwxxwuuwxxwuspmjhfdcbaa-----------------------------
(PID.TID 0000.0001) //     18 -----------------------------aabbdegilnqstuutsstuutsqnligedbbaa-----------------------------
(PID.TID 0000.0001) //     17 ------------------------------aabcdfhjlnpqrrqppqrrqpnljhfdcbaa------------------------------
(PID.TID 0000.0001) //     16 ------------------------------aabbdefhjlmnoonmmnoonmljhfedbbaa------------------------------
(PID.TID 0000.0001) //     15 ------------------------------aaabcdefhijkllkjjkllkjihfedcbaaa------------------------------
(PID.TID 0000.0001) //     14 -------------------------------aaabcdefghhiihhhhiihhgfedcbaaa-------------------------------
(PID.TID 0000.0001) //     13 --------------------------------aabbcddeffffffffffffeddcbbaa--------------------------------
(PID.TID 0000.0001) //     12 ---------------------------------aaabbcddddddddddddddcbbaaa---------------------------------
(PID.TID 0000.0001) //     11 ----------------------------------aaabbbccccccccccccbbbaaa----------------------------------
(PID.TID 0000.0001) //     10 -----------------------------------aaaabbbbbbbbbbbbbbaaaa-----------------------------------
(PID.TID 0000.0001) //      9 ------------------------------------aaaaaaaaaaaaaaaaaaaa------------------------------------
(PID.TID 0000.0001) //      8 ---------------------------------------aaaaaaaaaaaaaa---------------------------------------
(PID.TID 0000.0001) //      7 --------------------------------------------------------------------------------------------
(PID.TID 0000.0001) //      6 --------------------------------------------------------------------------------------------
(PID.TID 0000.0001) //      5 --------------------------------------------------------------------------------------------
(PID.TID 0000.0001) //      4 --------------------------------------------------------------------------------------------
(PID.TID 0000.0001) //      3 --------------------------------------------------------------------------------------------
(PID.TID 0000.0001) //      2 --------------------------------------------------------------------------------------------
(PID.TID 0000.0001) //      1 --------------------------------------------------------------------------------------------
(PID.TID 0000.0001) //      0 --------------------------------------------------------------------------------------------
(PID.TID 0000.0001) //     -1 --------------------------------------------------------------------------------------------
(PID.TID 0000.0001) //     -2 --------------------------------------------------------------------------------------------
(PID.TID 0000.0001) // =======================================================
(PID.TID 0000.0001) // END OF FIELD                                          =
(PID.TID 0000.0001) // =======================================================
(PID.TID 0000.0001) 
(PID.TID 0000.0001) // =======================================================
(PID.TID 0000.0001) // Field Model Ro_surf (ini_masks_etc)
(PID.TID 0000.0001) // CMIN =          1.000000000000000E+32
(PID.TID 0000.0001) // CMAX =         -1.000000000000000E+32
(PID.TID 0000.0001) // CINT =          0.000000000000000E+00
(PID.TID 0000.0001) // SYMBOLS (CMIN->CMAX): -abcdefghijklmnopqrstuvwxyz+
(PID.TID 0000.0001) //                  0.0: .
(PID.TID 0000.0001) // RANGE I (Lo:Hi:Step):(    -2:    83:     1)
(PID.TID 0000.0001) // RANGE J (Lo:Hi:Step):(    45:    -2:    -1)
(PID.TID 0000.0001) // RANGE K (Lo:Hi:Step):(   1:   1:   1)
(PID.TID 0000.0001) // =======================================================
(PID.TID 0000.0001) // =======================================================
(PID.TID 0000.0001) // END OF FIELD                                          =
(PID.TID 0000.0001) // =======================================================
(PID.TID 0000.0001) 
(PID.TID 0000.0001) // =======================================================
(PID.TID 0000.0001) // Field hFacC at iteration          0
(PID.TID 0000.0001) // CMIN =          8.716411970059894E-01
(PID.TID 0000.0001) // CMAX =          1.000000000000000E+00
(PID.TID 0000.0001) // CINT =          4.754029740518911E-03
(PID.TID 0000.0001) // SYMBOLS (CMIN->CMAX): -abcdefghijklmnopqrstuvwxyz+
(PID.TID 0000.0001) //                  0.0: .
(PID.TID 0000.0001) // RANGE I (Lo:Hi:Step):(    -2:    83:     1)
(PID.TID 0000.0001) // RANGE J (Lo:Hi:Step):(    45:    -2:    -1)
(PID.TID 0000.0001) // RANGE K (Lo:Hi:Step):(   1:   1:   1)
(PID.TID 0000.0001) // =======================================================
(PID.TID 0000.0001) K =   1
(PID.TID 0000.0001) //                I=7       I=17      I=27      I=37      I=41      I=51      I=61      I=71      I=81
(PID.TID 0000.0001) // |--J--|210123456|890123456|890123456|890123456|890123890|234567890|234567890|234567890|234567890|23
(PID.TID 0000.0001) //     45 ++++++++++++++++++++++++++++++++++++++++++++++++++++++++++++++++++++++++++++++++++++++++++++
(PID.TID 0000.0001) //     44 ++++++++++++++++++++++++++++++++++++++++++++++++++++++++++++++++++++++++++++++++++++++++++++
(PID.TID 0000.0001) //     43 ++++++++++++++++++++++++++++++++++++++++++++++++++++++++++++++++++++++++++++++++++++++++++++
(PID.TID 0000.0001) //     42 ++++++++++++++++++++++++++++++++++++++++++++++++++++++++++++++++++++++++++++++++++++++++++++
(PID.TID 0000.0001) //     41 ++++++++++++++++++++++++++++++++++++++++++++++++++++++++++++++++++++++++++++++++++++++++++++
(PID.TID 0000.0001) //     40 ++++++++++++++++++++++++++++++++++++++++++++++++++++++++++++++++++++++++++++++++++++++++++++
(PID.TID 0000.0001) //     39 ++++++++++++++++++++++++++++++++++++++++++++++++++++++++++++++++++++++++++++++++++++++++++++
(PID.TID 0000.0001) //     38 ++++++++++++++++++++++++++++++++++++++++++++++++++++++++++++++++++++++++++++++++++++++++++++
(PID.TID 0000.0001) //     37 ++++++++++++++++++++++++++++++++++++++++++++++++++++++++++++++++++++++++++++++++++++++++++++
(PID.TID 0000.0001) //     36 ++++++++++++++++++++++++++++++++++++++++++++++++++++++++++++++++++++++++++++++++++++++++++++
(PID.TID 0000.0001) //     35 ++++++++++++++++++++++++++++++++++++++++++++++++++++++++++++++++++++++++++++++++++++++++++++
(PID.TID 0000.0001) //     34 ++++++++++++++++++++++++++++++++++++++++++++++++++++++++++++++++++++++++++++++++++++++++++++
(PID.TID 0000.0001) //     33 ++++++++++++++++++++++++++++++++++++++++++++++++++++++++++++++++++++++++++++++++++++++++++++
(PID.TID 0000.0001) //     32 ++++++++++++++++++++++++++++++++++++++++++++++++++++++++++++++++++++++++++++++++++++++++++++
(PID.TID 0000.0001) //     31 ++++++++++++++++++++++++++++++++++++++++++++++++++++++++++++++++++++++++++++++++++++++++++++
(PID.TID 0000.0001) //     30 ++++++++++++++++++++++++++++++++++++++++++++++++++++++++++++++++++++++++++++++++++++++++++++
(PID.TID 0000.0001) //     29 ++++++++++++++++++++++++++++++++++++++++++++++++++++++++++++++++++++++++++++++++++++++++++++
(PID.TID 0000.0001) //     28 ++++++++++++++++++++++++++++++++++++++++++++++++++++++++++++++++++++++++++++++++++++++++++++
(PID.TID 0000.0001) //     27 ++++++++++++++++++++++++++++++++++++++++++++++++++++++++++++++++++++++++++++++++++++++++++++
(PID.TID 0000.0001) //     26 ++++++++++++++++++++++++++++++++++++++++++++++++++++++++++++++++++++++++++++++++++++++++++++
(PID.TID 0000.0001) //     25 ++++++++++++++++++++++++++++++++++++++++++++++++++++++++++++++++++++++++++++++++++++++++++++
(PID.TID 0000.0001) //     24 ++++++++++++++++++++++++++++++++++++++++++++++++++++++++++++++++++++++++++++++++++++++++++++
(PID.TID 0000.0001) //     23 ++++++++++++++++++++++++++++++++++++++++++++++++++++++++++++++++++++++++++++++++++++++++++++
(PID.TID 0000.0001) //     22 ++++++++++++++++++++++++++++++++++++++++++--++++--++++++++++++++++++++++++++++++++++++++++++
(PID.TID 0000.0001) //     21 ++++++++++++++++++++++++++++++++++++++++++--++++--++++++++++++++++++++++++++++++++++++++++++
(PID.TID 0000.0001) //     20 ++++++++++++++++++++++++++++++++++++++++++++++++++++++++++++++++++++++++++++++++++++++++++++
(PID.TID 0000.0001) //     19 ++++++++++++++++++++++++++++++++++++++++++++++++++++++++++++++++++++++++++++++++++++++++++++
(PID.TID 0000.0001) //     24 ++++++++++++++++++++++++++++++++++++++++++++++++++++++++++++++++++++++++++++++++++++++++++++
(PID.TID 0000.0001) //     23 ++++++++++++++++++++++++++++++++++++++++++++++++++++++++++++++++++++++++++++++++++++++++++++
(PID.TID 0000.0001) //     22 ++++++++++++++++++++++++++++++++++++++++++--++++--++++++++++++++++++++++++++++++++++++++++++
(PID.TID 0000.0001) //     21 ++++++++++++++++++++++++++++++++++++++++++--++++--++++++++++++++++++++++++++++++++++++++++++
(PID.TID 0000.0001) //     20 ++++++++++++++++++++++++++++++++++++++++++++++++++++++++++++++++++++++++++++++++++++++++++++
(PID.TID 0000.0001) //     19 ++++++++++++++++++++++++++++++++++++++++++++++++++++++++++++++++++++++++++++++++++++++++++++
(PID.TID 0000.0001) //     18 ++++++++++++++++++++++++++++++++++++++++++++++++++++++++++++++++++++++++++++++++++++++++++++
(PID.TID 0000.0001) //     17 ++++++++++++++++++++++++++++++++++++++++++++++++++++++++++++++++++++++++++++++++++++++++++++
(PID.TID 0000.0001) //     16 ++++++++++++++++++++++++++++++++++++++++++++++++++++++++++++++++++++++++++++++++++++++++++++
(PID.TID 0000.0001) //     15 ++++++++++++++++++++++++++++++++++++++++++++++++++++++++++++++++++++++++++++++++++++++++++++
(PID.TID 0000.0001) //     14 ++++++++++++++++++++++++++++++++++++++++++++++++++++++++++++++++++++++++++++++++++++++++++++
(PID.TID 0000.0001) //     13 ++++++++++++++++++++++++++++++++++++++++++++++++++++++++++++++++++++++++++++++++++++++++++++
(PID.TID 0000.0001) //     12 ++++++++++++++++++++++++++++++++++++++++++++++++++++++++++++++++++++++++++++++++++++++++++++
(PID.TID 0000.0001) //     11 ++++++++++++++++++++++++++++++++++++++++++++++++++++++++++++++++++++++++++++++++++++++++++++
(PID.TID 0000.0001) //     10 ++++++++++++++++++++++++++++++++++++++++++++++++++++++++++++++++++++++++++++++++++++++++++++
(PID.TID 0000.0001) //      9 ++++++++++++++++++++++++++++++++++++++++++++++++++++++++++++++++++++++++++++++++++++++++++++
(PID.TID 0000.0001) //      8 ++++++++++++++++++++++++++++++++++++++++++++++++++++++++++++++++++++++++++++++++++++++++++++
(PID.TID 0000.0001) //      7 ++++++++++++++++++++++++++++++++++++++++++++++++++++++++++++++++++++++++++++++++++++++++++++
(PID.TID 0000.0001) //      6 ++++++++++++++++++++++++++++++++++++++++++++++++++++++++++++++++++++++++++++++++++++++++++++
(PID.TID 0000.0001) //      5 ++++++++++++++++++++++++++++++++++++++++++++++++++++++++++++++++++++++++++++++++++++++++++++
(PID.TID 0000.0001) //      4 ++++++++++++++++++++++++++++++++++++++++++++++++++++++++++++++++++++++++++++++++++++++++++++
(PID.TID 0000.0001) //      3 ++++++++++++++++++++++++++++++++++++++++++++++++++++++++++++++++++++++++++++++++++++++++++++
(PID.TID 0000.0001) //      2 ++++++++++++++++++++++++++++++++++++++++++++++++++++++++++++++++++++++++++++++++++++++++++++
(PID.TID 0000.0001) //      1 ++++++++++++++++++++++++++++++++++++++++++++++++++++++++++++++++++++++++++++++++++++++++++++
(PID.TID 0000.0001) //      0 ++++++++++++++++++++++++++++++++++++++++++++++++++++++++++++++++++++++++++++++++++++++++++++
(PID.TID 0000.0001) //     -1 ++++++++++++++++++++++++++++++++++++++++++++++++++++++++++++++++++++++++++++++++++++++++++++
(PID.TID 0000.0001) //     -2 ++++++++++++++++++++++++++++++++++++++++++++++++++++++++++++++++++++++++++++++++++++++++++++
(PID.TID 0000.0001) // =======================================================
(PID.TID 0000.0001) // END OF FIELD                                          =
(PID.TID 0000.0001) // =======================================================
(PID.TID 0000.0001) 
(PID.TID 0000.0001) // =======================================================
(PID.TID 0000.0001) // Field hFacW at iteration          0
(PID.TID 0000.0001) // CMIN =          8.716411970059894E-01
(PID.TID 0000.0001) // CMAX =          1.000000000000000E+00
(PID.TID 0000.0001) // CINT =          4.754029740518911E-03
(PID.TID 0000.0001) // SYMBOLS (CMIN->CMAX): -abcdefghijklmnopqrstuvwxyz+
(PID.TID 0000.0001) //                  0.0: .
(PID.TID 0000.0001) // RANGE I (Lo:Hi:Step):(    -2:    83:     1)
(PID.TID 0000.0001) // RANGE J (Lo:Hi:Step):(    45:    -2:    -1)
(PID.TID 0000.0001) // RANGE K (Lo:Hi:Step):(   1:   1:   1)
(PID.TID 0000.0001) // =======================================================
(PID.TID 0000.0001) K =   1
(PID.TID 0000.0001) //                I=7       I=17      I=27      I=37      I=41      I=51      I=61      I=71      I=81
(PID.TID 0000.0001) // |--J--|210123456|890123456|890123456|890123456|890123890|234567890|234567890|234567890|234567890|23
(PID.TID 0000.0001) //     45 ++++++++++++++++++++++++++++++++++++++++++++++++++++++++++++++++++++++++++++++++++++++++++++
(PID.TID 0000.0001) //     44 ++++++++++++++++++++++++++++++++++++++++++++++++++++++++++++++++++++++++++++++++++++++++++++
(PID.TID 0000.0001) //     43 ++++++++++++++++++++++++++++++++++++++++++++++++++++++++++++++++++++++++++++++++++++++++++++
(PID.TID 0000.0001) //     42 ++++++++++++++++++++++++++++++++++++++++++++++++++++++++++++++++++++++++++++++++++++++++++++
(PID.TID 0000.0001) //     41 ++++++++++++++++++++++++++++++++++++++++++++++++++++++++++++++++++++++++++++++++++++++++++++
(PID.TID 0000.0001) //     40 ++++++++++++++++++++++++++++++++++++++++++++++++++++++++++++++++++++++++++++++++++++++++++++
(PID.TID 0000.0001) //     39 ++++++++++++++++++++++++++++++++++++++++++++++++++++++++++++++++++++++++++++++++++++++++++++
(PID.TID 0000.0001) //     38 ++++++++++++++++++++++++++++++++++++++++++++++++++++++++++++++++++++++++++++++++++++++++++++
(PID.TID 0000.0001) //     37 ++++++++++++++++++++++++++++++++++++++++++++++++++++++++++++++++++++++++++++++++++++++++++++
(PID.TID 0000.0001) //     36 ++++++++++++++++++++++++++++++++++++++++++++++++++++++++++++++++++++++++++++++++++++++++++++
(PID.TID 0000.0001) //     35 ++++++++++++++++++++++++++++++++++++++++++++++++++++++++++++++++++++++++++++++++++++++++++++
(PID.TID 0000.0001) //     34 ++++++++++++++++++++++++++++++++++++++++++++++++++++++++++++++++++++++++++++++++++++++++++++
(PID.TID 0000.0001) //     33 ++++++++++++++++++++++++++++++++++++++++++++++++++++++++++++++++++++++++++++++++++++++++++++
(PID.TID 0000.0001) //     32 ++++++++++++++++++++++++++++++++++++++++++++++++++++++++++++++++++++++++++++++++++++++++++++
(PID.TID 0000.0001) //     31 ++++++++++++++++++++++++++++++++++++++++++++++++++++++++++++++++++++++++++++++++++++++++++++
(PID.TID 0000.0001) //     30 ++++++++++++++++++++++++++++++++++++++++++++++++++++++++++++++++++++++++++++++++++++++++++++
(PID.TID 0000.0001) //     29 ++++++++++++++++++++++++++++++++++++++++++++++++++++++++++++++++++++++++++++++++++++++++++++
(PID.TID 0000.0001) //     28 ++++++++++++++++++++++++++++++++++++++++++++++++++++++++++++++++++++++++++++++++++++++++++++
(PID.TID 0000.0001) //     27 ++++++++++++++++++++++++++++++++++++++++++++++++++++++++++++++++++++++++++++++++++++++++++++
(PID.TID 0000.0001) //     26 ++++++++++++++++++++++++++++++++++++++++++++++++++++++++++++++++++++++++++++++++++++++++++++
(PID.TID 0000.0001) //     25 ++++++++++++++++++++++++++++++++++++++++++++++++++++++++++++++++++++++++++++++++++++++++++++
(PID.TID 0000.0001) //     24 ++++++++++++++++++++++++++++++++++++++++++++++++++++++++++++++++++++++++++++++++++++++++++++
(PID.TID 0000.0001) //     23 ++++++++++++++++++++++++++++++++++++++++++++++++++++++++++++++++++++++++++++++++++++++++++++
(PID.TID 0000.0001) //     22 ++++++++++++++++++++++++++++++++++++++++++---+++---+++++++++++++++++++++++++++++++++++++++++
(PID.TID 0000.0001) //     21 ++++++++++++++++++++++++++++++++++++++++++---+++---+++++++++++++++++++++++++++++++++++++++++
(PID.TID 0000.0001) //     20 ++++++++++++++++++++++++++++++++++++++++++++++++++++++++++++++++++++++++++++++++++++++++++++
(PID.TID 0000.0001) //     19 ++++++++++++++++++++++++++++++++++++++++++++++++++++++++++++++++++++++++++++++++++++++++++++
(PID.TID 0000.0001) //     24 ++++++++++++++++++++++++++++++++++++++++++++++++++++++++++++++++++++++++++++++++++++++++++++
(PID.TID 0000.0001) //     23 ++++++++++++++++++++++++++++++++++++++++++++++++++++++++++++++++++++++++++++++++++++++++++++
(PID.TID 0000.0001) //     22 ++++++++++++++++++++++++++++++++++++++++++---+++---+++++++++++++++++++++++++++++++++++++++++
(PID.TID 0000.0001) //     21 ++++++++++++++++++++++++++++++++++++++++++---+++---+++++++++++++++++++++++++++++++++++++++++
(PID.TID 0000.0001) //     20 ++++++++++++++++++++++++++++++++++++++++++++++++++++++++++++++++++++++++++++++++++++++++++++
(PID.TID 0000.0001) //     19 ++++++++++++++++++++++++++++++++++++++++++++++++++++++++++++++++++++++++++++++++++++++++++++
(PID.TID 0000.0001) //     18 ++++++++++++++++++++++++++++++++++++++++++++++++++++++++++++++++++++++++++++++++++++++++++++
(PID.TID 0000.0001) //     17 ++++++++++++++++++++++++++++++++++++++++++++++++++++++++++++++++++++++++++++++++++++++++++++
(PID.TID 0000.0001) //     16 ++++++++++++++++++++++++++++++++++++++++++++++++++++++++++++++++++++++++++++++++++++++++++++
(PID.TID 0000.0001) //     15 ++++++++++++++++++++++++++++++++++++++++++++++++++++++++++++++++++++++++++++++++++++++++++++
(PID.TID 0000.0001) //     14 ++++++++++++++++++++++++++++++++++++++++++++++++++++++++++++++++++++++++++++++++++++++++++++
(PID.TID 0000.0001) //     13 ++++++++++++++++++++++++++++++++++++++++++++++++++++++++++++++++++++++++++++++++++++++++++++
(PID.TID 0000.0001) //     12 ++++++++++++++++++++++++++++++++++++++++++++++++++++++++++++++++++++++++++++++++++++++++++++
(PID.TID 0000.0001) //     11 ++++++++++++++++++++++++++++++++++++++++++++++++++++++++++++++++++++++++++++++++++++++++++++
(PID.TID 0000.0001) //     10 ++++++++++++++++++++++++++++++++++++++++++++++++++++++++++++++++++++++++++++++++++++++++++++
(PID.TID 0000.0001) //      9 ++++++++++++++++++++++++++++++++++++++++++++++++++++++++++++++++++++++++++++++++++++++++++++
(PID.TID 0000.0001) //      8 ++++++++++++++++++++++++++++++++++++++++++++++++++++++++++++++++++++++++++++++++++++++++++++
(PID.TID 0000.0001) //      7 ++++++++++++++++++++++++++++++++++++++++++++++++++++++++++++++++++++++++++++++++++++++++++++
(PID.TID 0000.0001) //      6 ++++++++++++++++++++++++++++++++++++++++++++++++++++++++++++++++++++++++++++++++++++++++++++
(PID.TID 0000.0001) //      5 ++++++++++++++++++++++++++++++++++++++++++++++++++++++++++++++++++++++++++++++++++++++++++++
(PID.TID 0000.0001) //      4 ++++++++++++++++++++++++++++++++++++++++++++++++++++++++++++++++++++++++++++++++++++++++++++
(PID.TID 0000.0001) //      3 ++++++++++++++++++++++++++++++++++++++++++++++++++++++++++++++++++++++++++++++++++++++++++++
(PID.TID 0000.0001) //      2 ++++++++++++++++++++++++++++++++++++++++++++++++++++++++++++++++++++++++++++++++++++++++++++
(PID.TID 0000.0001) //      1 ++++++++++++++++++++++++++++++++++++++++++++++++++++++++++++++++++++++++++++++++++++++++++++
(PID.TID 0000.0001) //      0 ++++++++++++++++++++++++++++++++++++++++++++++++++++++++++++++++++++++++++++++++++++++++++++
(PID.TID 0000.0001) //     -1 ++++++++++++++++++++++++++++++++++++++++++++++++++++++++++++++++++++++++++++++++++++++++++++
(PID.TID 0000.0001) //     -2 ++++++++++++++++++++++++++++++++++++++++++++++++++++++++++++++++++++++++++++++++++++++++++++
(PID.TID 0000.0001) // =======================================================
(PID.TID 0000.0001) // END OF FIELD                                          =
(PID.TID 0000.0001) // =======================================================
(PID.TID 0000.0001) 
(PID.TID 0000.0001) // =======================================================
(PID.TID 0000.0001) // Field hFacS at iteration          0
(PID.TID 0000.0001) // CMIN =          8.716411970059894E-01
(PID.TID 0000.0001) // CMAX =          1.000000000000000E+00
(PID.TID 0000.0001) // CINT =          4.754029740518911E-03
(PID.TID 0000.0001) // SYMBOLS (CMIN->CMAX): -abcdefghijklmnopqrstuvwxyz+
(PID.TID 0000.0001) //                  0.0: .
(PID.TID 0000.0001) // RANGE I (Lo:Hi:Step):(    -2:    83:     1)
(PID.TID 0000.0001) // RANGE J (Lo:Hi:Step):(    45:    -2:    -1)
(PID.TID 0000.0001) // RANGE K (Lo:Hi:Step):(   1:   1:   1)
(PID.TID 0000.0001) // =======================================================
(PID.TID 0000.0001) K =   1
(PID.TID 0000.0001) //                I=7       I=17      I=27      I=37      I=41      I=51      I=61      I=71      I=81
(PID.TID 0000.0001) // |--J--|210123456|890123456|890123456|890123456|890123890|234567890|234567890|234567890|234567890|23
(PID.TID 0000.0001) //     45 ++++++++++++++++++++++++++++++++++++++++++++++++++++++++++++++++++++++++++++++++++++++++++++
(PID.TID 0000.0001) //     44 ++++++++++++++++++++++++++++++++++++++++++++++++++++++++++++++++++++++++++++++++++++++++++++
(PID.TID 0000.0001) //     43 ++++++++++++++++++++++++++++++++++++++++++++++++++++++++++++++++++++++++++++++++++++++++++++
(PID.TID 0000.0001) //     42 ++++++++++++++++++++++++++++++++++++++++++++++++++++++++++++++++++++++++++++++++++++++++++++
(PID.TID 0000.0001) //     41 ++++++++++++++++++++++++++++++++++++++++++++++++++++++++++++++++++++++++++++++++++++++++++++
(PID.TID 0000.0001) //     40 ++++++++++++++++++++++++++++++++++++++++++++++++++++++++++++++++++++++++++++++++++++++++++++
(PID.TID 0000.0001) //     39 ++++++++++++++++++++++++++++++++++++++++++++++++++++++++++++++++++++++++++++++++++++++++++++
(PID.TID 0000.0001) //     38 ++++++++++++++++++++++++++++++++++++++++++++++++++++++++++++++++++++++++++++++++++++++++++++
(PID.TID 0000.0001) //     37 ++++++++++++++++++++++++++++++++++++++++++++++++++++++++++++++++++++++++++++++++++++++++++++
(PID.TID 0000.0001) //     36 ++++++++++++++++++++++++++++++++++++++++++++++++++++++++++++++++++++++++++++++++++++++++++++
(PID.TID 0000.0001) //     35 ++++++++++++++++++++++++++++++++++++++++++++++++++++++++++++++++++++++++++++++++++++++++++++
(PID.TID 0000.0001) //     34 ++++++++++++++++++++++++++++++++++++++++++++++++++++++++++++++++++++++++++++++++++++++++++++
(PID.TID 0000.0001) //     33 ++++++++++++++++++++++++++++++++++++++++++++++++++++++++++++++++++++++++++++++++++++++++++++
(PID.TID 0000.0001) //     32 ++++++++++++++++++++++++++++++++++++++++++++++++++++++++++++++++++++++++++++++++++++++++++++
(PID.TID 0000.0001) //     31 ++++++++++++++++++++++++++++++++++++++++++++++++++++++++++++++++++++++++++++++++++++++++++++
(PID.TID 0000.0001) //     30 ++++++++++++++++++++++++++++++++++++++++++++++++++++++++++++++++++++++++++++++++++++++++++++
(PID.TID 0000.0001) //     29 ++++++++++++++++++++++++++++++++++++++++++++++++++++++++++++++++++++++++++++++++++++++++++++
(PID.TID 0000.0001) //     28 ++++++++++++++++++++++++++++++++++++++++++++++++++++++++++++++++++++++++++++++++++++++++++++
(PID.TID 0000.0001) //     27 ++++++++++++++++++++++++++++++++++++++++++++++++++++++++++++++++++++++++++++++++++++++++++++
(PID.TID 0000.0001) //     26 ++++++++++++++++++++++++++++++++++++++++++++++++++++++++++++++++++++++++++++++++++++++++++++
(PID.TID 0000.0001) //     25 ++++++++++++++++++++++++++++++++++++++++++++++++++++++++++++++++++++++++++++++++++++++++++++
(PID.TID 0000.0001) //     24 ++++++++++++++++++++++++++++++++++++++++++++++++++++++++++++++++++++++++++++++++++++++++++++
(PID.TID 0000.0001) //     23 ++++++++++++++++++++++++++++++++++++++++++--++++--++++++++++++++++++++++++++++++++++++++++++
(PID.TID 0000.0001) //     22 ++++++++++++++++++++++++++++++++++++++++++--++++--++++++++++++++++++++++++++++++++++++++++++
(PID.TID 0000.0001) //     21 ++++++++++++++++++++++++++++++++++++++++++--++++--++++++++++++++++++++++++++++++++++++++++++
(PID.TID 0000.0001) //     20 ++++++++++++++++++++++++++++++++++++++++++++++++++++++++++++++++++++++++++++++++++++++++++++
(PID.TID 0000.0001) //     19 ++++++++++++++++++++++++++++++++++++++++++++++++++++++++++++++++++++++++++++++++++++++++++++
(PID.TID 0000.0001) //     24 ++++++++++++++++++++++++++++++++++++++++++++++++++++++++++++++++++++++++++++++++++++++++++++
(PID.TID 0000.0001) //     23 ++++++++++++++++++++++++++++++++++++++++++--++++--++++++++++++++++++++++++++++++++++++++++++
(PID.TID 0000.0001) //     22 ++++++++++++++++++++++++++++++++++++++++++--++++--++++++++++++++++++++++++++++++++++++++++++
(PID.TID 0000.0001) //     21 ++++++++++++++++++++++++++++++++++++++++++--++++--++++++++++++++++++++++++++++++++++++++++++
(PID.TID 0000.0001) //     20 ++++++++++++++++++++++++++++++++++++++++++++++++++++++++++++++++++++++++++++++++++++++++++++
(PID.TID 0000.0001) //     19 ++++++++++++++++++++++++++++++++++++++++++++++++++++++++++++++++++++++++++++++++++++++++++++
(PID.TID 0000.0001) //     18 ++++++++++++++++++++++++++++++++++++++++++++++++++++++++++++++++++++++++++++++++++++++++++++
(PID.TID 0000.0001) //     17 ++++++++++++++++++++++++++++++++++++++++++++++++++++++++++++++++++++++++++++++++++++++++++++
(PID.TID 0000.0001) //     16 ++++++++++++++++++++++++++++++++++++++++++++++++++++++++++++++++++++++++++++++++++++++++++++
(PID.TID 0000.0001) //     15 ++++++++++++++++++++++++++++++++++++++++++++++++++++++++++++++++++++++++++++++++++++++++++++
(PID.TID 0000.0001) //     14 ++++++++++++++++++++++++++++++++++++++++++++++++++++++++++++++++++++++++++++++++++++++++++++
(PID.TID 0000.0001) //     13 ++++++++++++++++++++++++++++++++++++++++++++++++++++++++++++++++++++++++++++++++++++++++++++
(PID.TID 0000.0001) //     12 ++++++++++++++++++++++++++++++++++++++++++++++++++++++++++++++++++++++++++++++++++++++++++++
(PID.TID 0000.0001) //     11 ++++++++++++++++++++++++++++++++++++++++++++++++++++++++++++++++++++++++++++++++++++++++++++
(PID.TID 0000.0001) //     10 ++++++++++++++++++++++++++++++++++++++++++++++++++++++++++++++++++++++++++++++++++++++++++++
(PID.TID 0000.0001) //      9 ++++++++++++++++++++++++++++++++++++++++++++++++++++++++++++++++++++++++++++++++++++++++++++
(PID.TID 0000.0001) //      8 ++++++++++++++++++++++++++++++++++++++++++++++++++++++++++++++++++++++++++++++++++++++++++++
(PID.TID 0000.0001) //      7 ++++++++++++++++++++++++++++++++++++++++++++++++++++++++++++++++++++++++++++++++++++++++++++
(PID.TID 0000.0001) //      6 ++++++++++++++++++++++++++++++++++++++++++++++++++++++++++++++++++++++++++++++++++++++++++++
(PID.TID 0000.0001) //      5 ++++++++++++++++++++++++++++++++++++++++++++++++++++++++++++++++++++++++++++++++++++++++++++
(PID.TID 0000.0001) //      4 ++++++++++++++++++++++++++++++++++++++++++++++++++++++++++++++++++++++++++++++++++++++++++++
(PID.TID 0000.0001) //      3 ++++++++++++++++++++++++++++++++++++++++++++++++++++++++++++++++++++++++++++++++++++++++++++
(PID.TID 0000.0001) //      2 ++++++++++++++++++++++++++++++++++++++++++++++++++++++++++++++++++++++++++++++++++++++++++++
(PID.TID 0000.0001) //      1 ++++++++++++++++++++++++++++++++++++++++++++++++++++++++++++++++++++++++++++++++++++++++++++
(PID.TID 0000.0001) //      0 ++++++++++++++++++++++++++++++++++++++++++++++++++++++++++++++++++++++++++++++++++++++++++++
(PID.TID 0000.0001) //     -1 ++++++++++++++++++++++++++++++++++++++++++++++++++++++++++++++++++++++++++++++++++++++++++++
(PID.TID 0000.0001) //     -2 ++++++++++++++++++++++++++++++++++++++++++++++++++++++++++++++++++++++++++++++++++++++++++++
(PID.TID 0000.0001) // =======================================================
(PID.TID 0000.0001) // END OF FIELD                                          =
(PID.TID 0000.0001) // =======================================================
(PID.TID 0000.0001) 
(PID.TID 0000.0001) GAD_INIT_FIXED: GAD_OlMinSize=  2  0  1
(PID.TID 0000.0001) 
(PID.TID 0000.0001) // ===================================
(PID.TID 0000.0001) // GAD parameters :
(PID.TID 0000.0001) // ===================================
(PID.TID 0000.0001) tempAdvScheme =   /* Temp. Horiz.Advection scheme selector */
(PID.TID 0000.0001)                       2
(PID.TID 0000.0001)     ;
(PID.TID 0000.0001) tempVertAdvScheme =   /* Temp. Vert. Advection scheme selector */
(PID.TID 0000.0001)                       2
(PID.TID 0000.0001)     ;
(PID.TID 0000.0001) tempMultiDimAdvec =   /* use Muti-Dim Advec method for Temp */
(PID.TID 0000.0001)                   F
(PID.TID 0000.0001)     ;
(PID.TID 0000.0001) tempSOM_Advection = /* use 2nd Order Moment Advection for Temp */
(PID.TID 0000.0001)                   F
(PID.TID 0000.0001)     ;
(PID.TID 0000.0001) AdamsBashforthGt = /* apply Adams-Bashforth extrapolation on Gt */
(PID.TID 0000.0001)                   F
(PID.TID 0000.0001)     ;
(PID.TID 0000.0001) AdamsBashforth_T = /* apply Adams-Bashforth extrapolation on Temp */
(PID.TID 0000.0001)                   T
(PID.TID 0000.0001)     ;
(PID.TID 0000.0001) saltAdvScheme =   /* Salt. Horiz.advection scheme selector */
(PID.TID 0000.0001)                       4
(PID.TID 0000.0001)     ;
(PID.TID 0000.0001) saltVertAdvScheme =   /* Salt. Vert. Advection scheme selector */
(PID.TID 0000.0001)                       4
(PID.TID 0000.0001)     ;
(PID.TID 0000.0001) saltMultiDimAdvec =   /* use Muti-Dim Advec method for Salt */
(PID.TID 0000.0001)                   F
(PID.TID 0000.0001)     ;
(PID.TID 0000.0001) saltSOM_Advection = /* use 2nd Order Moment Advection for Salt */
(PID.TID 0000.0001)                   F
(PID.TID 0000.0001)     ;
(PID.TID 0000.0001) AdamsBashforthGs = /* apply Adams-Bashforth extrapolation on Gs */
(PID.TID 0000.0001)                   F
(PID.TID 0000.0001)     ;
(PID.TID 0000.0001) AdamsBashforth_S = /* apply Adams-Bashforth extrapolation on Salt */
(PID.TID 0000.0001)                   T
(PID.TID 0000.0001)     ;
(PID.TID 0000.0001) // ===================================
(PID.TID 0000.0001)  MDS_READ_FIELD: opening global file: rbcs_mask.bin
(PID.TID 0000.0001) %MON fCori_max                    =   1.0000000000000E-04
(PID.TID 0000.0001) %MON fCori_min                    =   1.0000000000000E-04
(PID.TID 0000.0001) %MON fCori_mean                   =   1.0000000000000E-04
(PID.TID 0000.0001) %MON fCori_sd                     =   1.6398557858843E-18
(PID.TID 0000.0001) %MON fCoriG_max                   =   1.0000000000000E-04
(PID.TID 0000.0001) %MON fCoriG_min                   =   1.0000000000000E-04
(PID.TID 0000.0001) %MON fCoriG_mean                  =   1.0000000000000E-04
(PID.TID 0000.0001) %MON fCoriG_sd                    =   1.6398557858843E-18
(PID.TID 0000.0001) %MON fCoriCos_max                 =   0.0000000000000E+00
(PID.TID 0000.0001) %MON fCoriCos_min                 =   0.0000000000000E+00
(PID.TID 0000.0001) %MON fCoriCos_mean                =   0.0000000000000E+00
(PID.TID 0000.0001) %MON fCoriCos_sd                  =   0.0000000000000E+00
(PID.TID 0000.0001) INI_CG2D: CG2D normalisation factor =  2.2222222222222226E-04
(PID.TID 0000.0001) 
(PID.TID 0000.0001) // =======================================================
(PID.TID 0000.0001) // Model configuration
(PID.TID 0000.0001) // =======================================================
(PID.TID 0000.0001) //
(PID.TID 0000.0001) // "Physical" paramters ( PARM01 in namelist )
(PID.TID 0000.0001) //
(PID.TID 0000.0001) buoyancyRelation = /* Type of relation to get Buoyancy */
(PID.TID 0000.0001)               'OCEANIC'
(PID.TID 0000.0001)     ;
(PID.TID 0000.0001) fluidIsAir   =  /* fluid major constituent is Air */
(PID.TID 0000.0001)                   F
(PID.TID 0000.0001)     ;
(PID.TID 0000.0001) fluidIsWater =  /* fluid major constituent is Water */
(PID.TID 0000.0001)                   T
(PID.TID 0000.0001)     ;
(PID.TID 0000.0001) usingPCoords =  /* use p (or p*) vertical coordinate */
(PID.TID 0000.0001)                   F
(PID.TID 0000.0001)     ;
(PID.TID 0000.0001) usingZCoords =  /* use z (or z*) vertical coordinate */
(PID.TID 0000.0001)                   T
(PID.TID 0000.0001)     ;
(PID.TID 0000.0001) tRef =   /* Reference temperature profile ( oC or K ) */
(PID.TID 0000.0001)                 6.968340000000000E-01,      /* K =  1 */
(PID.TID 0000.0001)                 4.977380000000000E-01,      /* K =  2 */
(PID.TID 0000.0001)                 2.986430000000000E-01,      /* K =  3 */
(PID.TID 0000.0001)                 9.954770000000000E-02,      /* K =  4 */
(PID.TID 0000.0001)                -9.954770000000000E-02,      /* K =  5 */
(PID.TID 0000.0001)                -2.986430000000000E-01,      /* K =  6 */
(PID.TID 0000.0001)                -4.977380000000000E-01,      /* K =  7 */
(PID.TID 0000.0001)                -6.968340000000000E-01       /* K =  8 */
(PID.TID 0000.0001)     ;
(PID.TID 0000.0001) sRef =   /* Reference salinity profile ( psu ) */
(PID.TID 0000.0001)     8 @  3.500000000000000E+01              /* K =  1:  8 */
(PID.TID 0000.0001)     ;
(PID.TID 0000.0001) useStrainTensionVisc= /* Use StrainTension Form of Viscous Operator */
(PID.TID 0000.0001)                   F
(PID.TID 0000.0001)     ;
(PID.TID 0000.0001) useVariableVisc = /* Use variable horizontal viscosity */
(PID.TID 0000.0001)                   F
(PID.TID 0000.0001)     ;
(PID.TID 0000.0001) useHarmonicVisc = /* Use harmonic horizontal viscosity */
(PID.TID 0000.0001)                   T
(PID.TID 0000.0001)     ;
(PID.TID 0000.0001) useBiharmonicVisc= /* Use biharmonic horiz.  viscosity */
(PID.TID 0000.0001)                   T
(PID.TID 0000.0001)     ;
(PID.TID 0000.0001) useSmag3D = /* Use isotropic 3-D Smagorinsky viscosity */
(PID.TID 0000.0001)                   F
(PID.TID 0000.0001)     ;
(PID.TID 0000.0001) viscAh  =   /* Lateral harmonic viscosity ( m^2/s ) */
(PID.TID 0000.0001)                 1.000000000000000E+03
(PID.TID 0000.0001)     ;
(PID.TID 0000.0001) viscA4  =   /* Lateral biharmonic viscosity ( m^4/s ) */
(PID.TID 0000.0001)                 1.000000000000000E+08
(PID.TID 0000.0001)     ;
(PID.TID 0000.0001) no_slip_sides =  /* Viscous BCs: No-slip sides */
(PID.TID 0000.0001)                   F
(PID.TID 0000.0001)     ;
(PID.TID 0000.0001) sideDragFactor = /* side-drag scaling factor (non-dim) */
(PID.TID 0000.0001)                 2.000000000000000E+00
(PID.TID 0000.0001)     ;
(PID.TID 0000.0001) viscArNr = /* vertical profile of vertical viscosity ( m^2/s )*/
(PID.TID 0000.0001)     8 @  1.000000000000000E-03              /* K =  1:  8 */
(PID.TID 0000.0001)     ;
(PID.TID 0000.0001) no_slip_bottom =  /* Viscous BCs: No-slip bottom */
(PID.TID 0000.0001)                   F
(PID.TID 0000.0001)     ;
(PID.TID 0000.0001) bottomDragLinear = /* linear bottom-drag coefficient ( m/s ) */
(PID.TID 0000.0001)                 0.000000000000000E+00
(PID.TID 0000.0001)     ;
(PID.TID 0000.0001) bottomDragQuadratic = /* quadratic bottom-drag coefficient (-) */
(PID.TID 0000.0001)                 0.000000000000000E+00
(PID.TID 0000.0001)     ;
(PID.TID 0000.0001) diffKhT =   /* Laplacian diffusion of heat laterally ( m^2/s ) */
(PID.TID 0000.0001)                 1.000000000000000E+03
(PID.TID 0000.0001)     ;
(PID.TID 0000.0001) diffK4T =   /* Biharmonic diffusion of heat laterally ( m^4/s ) */
(PID.TID 0000.0001)                 0.000000000000000E+00
(PID.TID 0000.0001)     ;
(PID.TID 0000.0001) diffKhS =   /* Laplacian diffusion of salt laterally ( m^2/s ) */
(PID.TID 0000.0001)                 1.000000000000000E+03
(PID.TID 0000.0001)     ;
(PID.TID 0000.0001) diffK4S =   /* Biharmonic diffusion of salt laterally ( m^4/s ) */
(PID.TID 0000.0001)                 0.000000000000000E+00
(PID.TID 0000.0001)     ;
(PID.TID 0000.0001) diffKrNrT = /* vertical profile of vertical diffusion of Temp ( m^2/s )*/
(PID.TID 0000.0001)     8 @  1.000000000000000E-05              /* K =  1:  8 */
(PID.TID 0000.0001)     ;
(PID.TID 0000.0001) diffKrNrS = /* vertical profile of vertical diffusion of Salt ( m^2/s )*/
(PID.TID 0000.0001)     8 @  1.000000000000000E-05              /* K =  1:  8 */
(PID.TID 0000.0001)     ;
(PID.TID 0000.0001) diffKrBL79surf = /* Surface diffusion for Bryan and Lewis 79 ( m^2/s ) */
(PID.TID 0000.0001)                 0.000000000000000E+00
(PID.TID 0000.0001)     ;
(PID.TID 0000.0001) diffKrBL79deep = /* Deep diffusion for Bryan and Lewis 1979 ( m^2/s ) */
(PID.TID 0000.0001)                 0.000000000000000E+00
(PID.TID 0000.0001)     ;
(PID.TID 0000.0001) diffKrBL79scl = /* Depth scale for Bryan and Lewis 1979 ( m ) */
(PID.TID 0000.0001)                 2.000000000000000E+02
(PID.TID 0000.0001)     ;
(PID.TID 0000.0001) diffKrBL79Ho = /* Turning depth for Bryan and Lewis 1979 ( m ) */
(PID.TID 0000.0001)                -2.000000000000000E+03
(PID.TID 0000.0001)     ;
(PID.TID 0000.0001) ivdc_kappa = /* Implicit Vertical Diffusivity for Convection ( m^2/s) */
(PID.TID 0000.0001)                 0.000000000000000E+00
(PID.TID 0000.0001)     ;
(PID.TID 0000.0001) hMixCriteria=  /* Criteria for mixed-layer diagnostic */
(PID.TID 0000.0001)                -8.000000000000000E-01
(PID.TID 0000.0001)     ;
(PID.TID 0000.0001) dRhoSmall =  /* Parameter for mixed-layer diagnostic */
(PID.TID 0000.0001)                 1.000000000000000E-06
(PID.TID 0000.0001)     ;
(PID.TID 0000.0001) hMixSmooth=  /* Smoothing parameter for mixed-layer diagnostic */
(PID.TID 0000.0001)                 0.000000000000000E+00
(PID.TID 0000.0001)     ;
(PID.TID 0000.0001) eosType =  /* Type of Equation of State */
(PID.TID 0000.0001)               'LINEAR'
(PID.TID 0000.0001)     ;
(PID.TID 0000.0001) tAlpha = /* Linear EOS thermal expansion coefficient ( 1/oC ) */
(PID.TID 0000.0001)                 2.000000000000000E-04
(PID.TID 0000.0001)     ;
(PID.TID 0000.0001) sBeta  = /* Linear EOS haline contraction coefficient ( 1/psu ) */
(PID.TID 0000.0001)                 0.000000000000000E+00
(PID.TID 0000.0001)     ;
(PID.TID 0000.0001) rhoNil    = /* Reference density for Linear EOS ( kg/m^3 ) */
(PID.TID 0000.0001)                 9.998000000000000E+02
(PID.TID 0000.0001)     ;
(PID.TID 0000.0001) HeatCapacity_Cp =  /* Specific heat capacity ( J/kg/K ) */
(PID.TID 0000.0001)                 3.994000000000000E+03
(PID.TID 0000.0001)     ;
(PID.TID 0000.0001) celsius2K = /* 0 degree Celsius converted to Kelvin ( K ) */
(PID.TID 0000.0001)                 2.731500000000000E+02
(PID.TID 0000.0001)     ;
(PID.TID 0000.0001) rhoConst  = /* Reference density (Boussinesq)  ( kg/m^3 ) */
(PID.TID 0000.0001)                 9.998000000000000E+02
(PID.TID 0000.0001)     ;
(PID.TID 0000.0001) rhoFacC = /* normalized Reference density @ cell-Center (-) */
(PID.TID 0000.0001)     8 @  1.000000000000000E+00              /* K =  1:  8 */
(PID.TID 0000.0001)     ;
(PID.TID 0000.0001) rhoFacF = /* normalized Reference density @ W-Interface (-) */
(PID.TID 0000.0001)     9 @  1.000000000000000E+00              /* K =  1:  9 */
(PID.TID 0000.0001)     ;
(PID.TID 0000.0001) rhoConstFresh = /* Fresh-water reference density ( kg/m^3 ) */
(PID.TID 0000.0001)                 9.998000000000000E+02
(PID.TID 0000.0001)     ;
(PID.TID 0000.0001) gravity =   /* Gravitational acceleration ( m/s^2 ) */
(PID.TID 0000.0001)                 9.810000000000000E+00
(PID.TID 0000.0001)     ;
(PID.TID 0000.0001) gBaro =   /* Barotropic gravity ( m/s^2 ) */
(PID.TID 0000.0001)                 9.810000000000000E+00
(PID.TID 0000.0001)     ;
(PID.TID 0000.0001) rotationPeriod =   /* Rotation Period ( s ) */
(PID.TID 0000.0001)                 8.616400000000000E+04
(PID.TID 0000.0001)     ;
(PID.TID 0000.0001) omega =   /* Angular velocity ( rad/s ) */
(PID.TID 0000.0001)                 7.292123516990375E-05
(PID.TID 0000.0001)     ;
(PID.TID 0000.0001) f0 =   /* Reference coriolis parameter ( 1/s ) */
(PID.TID 0000.0001)                 1.000000000000000E-04
(PID.TID 0000.0001)     ;
(PID.TID 0000.0001) beta =   /* Beta ( 1/(m.s) ) */
(PID.TID 0000.0001)                 0.000000000000000E+00
(PID.TID 0000.0001)     ;
(PID.TID 0000.0001) fPrime =   /* Second coriolis parameter ( 1/s ) */
(PID.TID 0000.0001)                 0.000000000000000E+00
(PID.TID 0000.0001)     ;
(PID.TID 0000.0001) rigidLid =   /* Rigid lid on/off flag */
(PID.TID 0000.0001)                   F
(PID.TID 0000.0001)     ;
(PID.TID 0000.0001) implicitFreeSurface =   /* Implicit free surface on/off flag */
(PID.TID 0000.0001)                   T
(PID.TID 0000.0001)     ;
(PID.TID 0000.0001) freeSurfFac =   /* Implicit free surface factor */
(PID.TID 0000.0001)                 1.000000000000000E+00
(PID.TID 0000.0001)     ;
(PID.TID 0000.0001) implicSurfPress =  /* Surface Pressure implicit factor (0-1)*/
(PID.TID 0000.0001)                 1.000000000000000E+00
(PID.TID 0000.0001)     ;
(PID.TID 0000.0001) implicDiv2Dflow =  /* Barot. Flow Div. implicit factor (0-1)*/
(PID.TID 0000.0001)                 1.000000000000000E+00
(PID.TID 0000.0001)     ;
(PID.TID 0000.0001) uniformLin_PhiSurf = /* use uniform Bo_surf on/off flag*/
(PID.TID 0000.0001)                   T
(PID.TID 0000.0001)     ;
(PID.TID 0000.0001) uniformFreeSurfLev = /* free-surface level-index is uniform */
(PID.TID 0000.0001)                   T
(PID.TID 0000.0001)     ;
(PID.TID 0000.0001) hFacMin =   /* minimum partial cell factor (hFac) */
(PID.TID 0000.0001)                 2.000000000000000E-01
(PID.TID 0000.0001)     ;
(PID.TID 0000.0001) hFacMinDr = /* minimum partial cell thickness ( m) */
(PID.TID 0000.0001)                 0.000000000000000E+00
(PID.TID 0000.0001)     ;
(PID.TID 0000.0001) exactConserv =  /* Exact Volume Conservation on/off flag*/
(PID.TID 0000.0001)                   T
(PID.TID 0000.0001)     ;
(PID.TID 0000.0001) linFSConserveTr = /* Tracer correction for Lin Free Surface on/off flag*/
(PID.TID 0000.0001)                   F
(PID.TID 0000.0001)     ;
(PID.TID 0000.0001) nonlinFreeSurf = /* Non-linear Free Surf. options (-1,0,1,2,3)*/
(PID.TID 0000.0001)                       4
(PID.TID 0000.0001)      -1,0= Off ; 1,2,3= On, 2=+rescale gU,gV, 3=+update cg2d solv.
(PID.TID 0000.0001)     ;
(PID.TID 0000.0001) hFacInf =   /* lower threshold for hFac (nonlinFreeSurf only)*/
(PID.TID 0000.0001)                 2.000000000000000E-01
(PID.TID 0000.0001)     ;
(PID.TID 0000.0001) hFacSup =   /* upper threshold for hFac (nonlinFreeSurf only)*/
(PID.TID 0000.0001)                 2.000000000000000E+00
(PID.TID 0000.0001)     ;
(PID.TID 0000.0001) select_rStar = /* r* Vertical coord. options (=0 r coord.; >0 uses r*)*/
(PID.TID 0000.0001)                       2
(PID.TID 0000.0001)     ;
(PID.TID 0000.0001) useRealFreshWaterFlux = /* Real Fresh Water Flux on/off flag*/
(PID.TID 0000.0001)                   F
(PID.TID 0000.0001)     ;
(PID.TID 0000.0001) temp_EvPrRn = /* Temp. of Evap/Prec/R (UNSET=use local T)(oC)*/
(PID.TID 0000.0001)                 1.234567000000000E+05
(PID.TID 0000.0001)     ;
(PID.TID 0000.0001) salt_EvPrRn = /* Salin. of Evap/Prec/R (UNSET=use local S)(psu)*/
(PID.TID 0000.0001)                 0.000000000000000E+00
(PID.TID 0000.0001)     ;
(PID.TID 0000.0001) selectAddFluid = /* option for mass source/sink of fluid (=0: off) */
(PID.TID 0000.0001)                       0
(PID.TID 0000.0001)     ;
(PID.TID 0000.0001) temp_addMass = /* Temp. of addMass array (UNSET=use local T)(oC)*/
(PID.TID 0000.0001)                 1.234567000000000E+05
(PID.TID 0000.0001)     ;
(PID.TID 0000.0001) salt_addMass = /* Salin. of addMass array (UNSET=use local S)(psu)*/
(PID.TID 0000.0001)                 0.000000000000000E+00
(PID.TID 0000.0001)     ;
(PID.TID 0000.0001) convertFW2Salt = /* convert F.W. Flux to Salt Flux (-1=use local S)(psu)*/
(PID.TID 0000.0001)                 3.500000000000000E+01
(PID.TID 0000.0001)     ;
(PID.TID 0000.0001) use3Dsolver = /* use 3-D pressure solver on/off flag */
(PID.TID 0000.0001)                   F
(PID.TID 0000.0001)     ;
(PID.TID 0000.0001) nonHydrostatic =  /* Non-Hydrostatic on/off flag */
(PID.TID 0000.0001)                   F
(PID.TID 0000.0001)     ;
(PID.TID 0000.0001) nh_Am2 = /* Non-Hydrostatic terms scaling factor */
(PID.TID 0000.0001)                 1.000000000000000E+00
(PID.TID 0000.0001)     ;
(PID.TID 0000.0001) implicitNHPress = /* Non-Hyd Pressure implicit factor (0-1)*/
(PID.TID 0000.0001)                 1.000000000000000E+00
(PID.TID 0000.0001)     ;
(PID.TID 0000.0001) selectNHfreeSurf = /* Non-Hyd (free-)Surface option */
(PID.TID 0000.0001)                       0
(PID.TID 0000.0001)     ;
(PID.TID 0000.0001) quasiHydrostatic = /* Quasi-Hydrostatic on/off flag */
(PID.TID 0000.0001)                   F
(PID.TID 0000.0001)     ;
(PID.TID 0000.0001) calc_wVelocity = /* vertical velocity calculation on/off flag */
(PID.TID 0000.0001)                   T
(PID.TID 0000.0001)     ;
(PID.TID 0000.0001) momStepping =  /* Momentum equation on/off flag */
(PID.TID 0000.0001)                   T
(PID.TID 0000.0001)     ;
(PID.TID 0000.0001) vectorInvariantMomentum= /* Vector-Invariant Momentum on/off */
(PID.TID 0000.0001)                   T
(PID.TID 0000.0001)     ;
(PID.TID 0000.0001) momAdvection =  /* Momentum advection on/off flag */
(PID.TID 0000.0001)                   T
(PID.TID 0000.0001)     ;
(PID.TID 0000.0001) momViscosity =  /* Momentum viscosity on/off flag */
(PID.TID 0000.0001)                   T
(PID.TID 0000.0001)     ;
(PID.TID 0000.0001) momImplVertAdv= /* Momentum implicit vert. advection on/off*/
(PID.TID 0000.0001)                   F
(PID.TID 0000.0001)     ;
(PID.TID 0000.0001) implicitViscosity = /* Implicit viscosity on/off flag */
(PID.TID 0000.0001)                   F
(PID.TID 0000.0001)     ;
(PID.TID 0000.0001) metricTerms =  /* metric-Terms on/off flag */
(PID.TID 0000.0001)                   F
(PID.TID 0000.0001)     ;
(PID.TID 0000.0001) useNHMTerms = /* Non-Hydrostatic Metric-Terms on/off */
(PID.TID 0000.0001)                   F
(PID.TID 0000.0001)     ;
(PID.TID 0000.0001) selectCoriMap = /* Coriolis Map options (0,1,2,3)*/
(PID.TID 0000.0001)                       1
(PID.TID 0000.0001)     0= f-Plane ; 1= Beta-Plane ; 2= Spherical ; 3= read from file
(PID.TID 0000.0001)     ;
(PID.TID 0000.0001) use3dCoriolis = /* 3-D Coriolis on/off flag */
(PID.TID 0000.0001)                   F
(PID.TID 0000.0001)     ;
(PID.TID 0000.0001) useCoriolis =  /* Coriolis on/off flag */
(PID.TID 0000.0001)                   T
(PID.TID 0000.0001)     ;
(PID.TID 0000.0001) useCDscheme =  /* CD scheme on/off flag */
(PID.TID 0000.0001)                   F
(PID.TID 0000.0001)     ;
(PID.TID 0000.0001) useEnergyConservingCoriolis= /* Flx-Form Coriolis scheme flag */
(PID.TID 0000.0001)                   F
(PID.TID 0000.0001)     ;
(PID.TID 0000.0001) useJamartWetPoints= /* Coriolis WetPoints method flag */
(PID.TID 0000.0001)                   F
(PID.TID 0000.0001)     ;
(PID.TID 0000.0001) useJamartMomAdv= /* V.I Non-linear terms Jamart flag */
(PID.TID 0000.0001)                   F
(PID.TID 0000.0001)     ;
(PID.TID 0000.0001) useAbsVorticity= /* V.I Works with f+zeta in Coriolis */
(PID.TID 0000.0001)                   F
(PID.TID 0000.0001)     ;
(PID.TID 0000.0001) selectVortScheme= /* V.I Scheme selector for Vorticity-Term */
(PID.TID 0000.0001)                       3
(PID.TID 0000.0001)    = 0 : enstrophy (Shallow-Water Eq.) conserving scheme by Sadourny, JAS 75
(PID.TID 0000.0001)    = 1 : same as 0 with modified hFac
(PID.TID 0000.0001)    = 2 : energy conserving scheme (used by Sadourny in JAS 75 paper)
(PID.TID 0000.0001)    = 3 : energy (general) and enstrophy (2D, nonDiv.) conserving scheme
(PID.TID 0000.0001)          from Sadourny (Burridge & Haseler, ECMWF Rep.4, 1977)
(PID.TID 0000.0001)     ;
(PID.TID 0000.0001) upwindVorticity= /* V.I Upwind bias vorticity flag */
(PID.TID 0000.0001)                   F
(PID.TID 0000.0001)     ;
(PID.TID 0000.0001) highOrderVorticity= /* V.I High order vort. advect. flag */
(PID.TID 0000.0001)                   F
(PID.TID 0000.0001)     ;
(PID.TID 0000.0001) upwindShear= /* V.I Upwind vertical Shear advection flag */
(PID.TID 0000.0001)                   F
(PID.TID 0000.0001)     ;
(PID.TID 0000.0001) selectKEscheme= /* V.I Kinetic Energy scheme selector */
(PID.TID 0000.0001)                       2
(PID.TID 0000.0001)     ;
(PID.TID 0000.0001) momForcing =  /* Momentum forcing on/off flag */
(PID.TID 0000.0001)                   T
(PID.TID 0000.0001)     ;
(PID.TID 0000.0001) momPressureForcing =  /* Momentum pressure term on/off flag */
(PID.TID 0000.0001)                   T
(PID.TID 0000.0001)     ;
(PID.TID 0000.0001) implicitIntGravWave= /* Implicit Internal Gravity Wave flag */
(PID.TID 0000.0001)                   F
(PID.TID 0000.0001)     ;
(PID.TID 0000.0001) staggerTimeStep =    /* Stagger time stepping on/off flag */
(PID.TID 0000.0001)                   T
(PID.TID 0000.0001)     ;
(PID.TID 0000.0001) doResetHFactors = /* reset thickness factors @ each time-step */
(PID.TID 0000.0001)                   F
(PID.TID 0000.0001)     ;
(PID.TID 0000.0001) multiDimAdvection =  /* enable/disable Multi-Dim Advection */
(PID.TID 0000.0001)                   T
(PID.TID 0000.0001)     ;
(PID.TID 0000.0001) useMultiDimAdvec =   /* Multi-Dim Advection is/is-not used */
(PID.TID 0000.0001)                   F
(PID.TID 0000.0001)     ;
(PID.TID 0000.0001) implicitDiffusion = /* Implicit Diffusion on/off flag */
(PID.TID 0000.0001)                   F
(PID.TID 0000.0001)     ;
(PID.TID 0000.0001) tempStepping =  /* Temperature equation on/off flag */
(PID.TID 0000.0001)                   T
(PID.TID 0000.0001)     ;
(PID.TID 0000.0001) tempAdvection = /* Temperature advection on/off flag */
(PID.TID 0000.0001)                   T
(PID.TID 0000.0001)     ;
(PID.TID 0000.0001) tempImplVertAdv = /* Temp. implicit vert. advection on/off */
(PID.TID 0000.0001)                   F
(PID.TID 0000.0001)     ;
(PID.TID 0000.0001) tempForcing  =  /* Temperature forcing on/off flag */
(PID.TID 0000.0001)                   T
(PID.TID 0000.0001)     ;
(PID.TID 0000.0001) doThetaClimRelax = /* apply SST relaxation on/off flag */
(PID.TID 0000.0001)                   F
(PID.TID 0000.0001)     ;
(PID.TID 0000.0001) tempIsActiveTr = /* Temp. is a dynamically Active Tracer */
(PID.TID 0000.0001)                   T
(PID.TID 0000.0001)     ;
(PID.TID 0000.0001) saltStepping =  /* Salinity equation on/off flag */
(PID.TID 0000.0001)                   T
(PID.TID 0000.0001)     ;
(PID.TID 0000.0001) saltAdvection = /* Salinity advection on/off flag */
(PID.TID 0000.0001)                   T
(PID.TID 0000.0001)     ;
(PID.TID 0000.0001) saltImplVertAdv = /* Sali. implicit vert. advection on/off */
(PID.TID 0000.0001)                   F
(PID.TID 0000.0001)     ;
(PID.TID 0000.0001) saltForcing  =  /* Salinity forcing on/off flag */
(PID.TID 0000.0001)                   T
(PID.TID 0000.0001)     ;
(PID.TID 0000.0001) doSaltClimRelax = /* apply SSS relaxation on/off flag */
(PID.TID 0000.0001)                   F
(PID.TID 0000.0001)     ;
(PID.TID 0000.0001) saltIsActiveTr = /* Salt  is a dynamically Active Tracer */
(PID.TID 0000.0001)                   F
(PID.TID 0000.0001)     ;
(PID.TID 0000.0001)  readBinaryPrec = /* Precision used for reading binary files */
(PID.TID 0000.0001)                      64
(PID.TID 0000.0001)     ;
(PID.TID 0000.0001) writeBinaryPrec = /* Precision used for writing binary files */
(PID.TID 0000.0001)                      32
(PID.TID 0000.0001)     ;
(PID.TID 0000.0001)  globalFiles = /* write "global" (=not per tile) files */
(PID.TID 0000.0001)                   F
(PID.TID 0000.0001)     ;
(PID.TID 0000.0001)  useSingleCpuIO = /* only master MPI process does I/O */
(PID.TID 0000.0001)                   F
(PID.TID 0000.0001)     ;
(PID.TID 0000.0001)  useSingleCpuInput = /* only master process reads input */
(PID.TID 0000.0001)                   F
(PID.TID 0000.0001)     ;
(PID.TID 0000.0001) /* debLev[*]  : level of debug & auxiliary message printing */
(PID.TID 0000.0001) debLevZero =  0 ; /* level of disabled aux. msg printing */
(PID.TID 0000.0001)    debLevA =  1 ; /* level of minimum  aux. msg printing */
(PID.TID 0000.0001)    debLevB =  2 ; /* level of low aux. print (report read-file opening)*/
(PID.TID 0000.0001)    debLevC =  3 ; /* level of moderate debug prt (most pkgs debug msg) */
(PID.TID 0000.0001)    debLevD =  4 ; /* level of enhanced debug prt (add DEBUG_STATS prt) */
(PID.TID 0000.0001)    debLevE =  5 ; /* level of extensive debug printing */
(PID.TID 0000.0001) debugLevel =  /* select debug printing level */
(PID.TID 0000.0001)                       2
(PID.TID 0000.0001)     ;
(PID.TID 0000.0001) //
(PID.TID 0000.0001) // Elliptic solver(s) paramters ( PARM02 in namelist )
(PID.TID 0000.0001) //
(PID.TID 0000.0001) cg2dMaxIters =   /* Upper limit on 2d con. grad iterations  */
(PID.TID 0000.0001)                    1000
(PID.TID 0000.0001)     ;
(PID.TID 0000.0001) cg2dChkResFreq =   /* 2d con. grad convergence test frequency */
(PID.TID 0000.0001)                       1
(PID.TID 0000.0001)     ;
(PID.TID 0000.0001) cg2dUseMinResSol= /* use cg2d last-iter(=0) / min-resid.(=1) solution */
(PID.TID 0000.0001)                       0
(PID.TID 0000.0001)     ;
(PID.TID 0000.0001) cg2dTargetResidual =   /* 2d con. grad target residual  */
(PID.TID 0000.0001)                 1.000000000000000E-13
(PID.TID 0000.0001)     ;
(PID.TID 0000.0001) cg2dTargetResWunit =   /* CG2d target residual [W units] */
(PID.TID 0000.0001)                -1.000000000000000E+00
(PID.TID 0000.0001)     ;
(PID.TID 0000.0001) cg2dPreCondFreq =   /* Freq. for updating cg2d preconditioner */
(PID.TID 0000.0001)                       1
(PID.TID 0000.0001)     ;
(PID.TID 0000.0001) useSRCGSolver =  /* use single reduction CG solver(s) */
(PID.TID 0000.0001)                   F
(PID.TID 0000.0001)     ;
(PID.TID 0000.0001) printResidualFreq = /* Freq. for printing CG residual */
(PID.TID 0000.0001)                       0
(PID.TID 0000.0001)     ;
(PID.TID 0000.0001) //
(PID.TID 0000.0001) // Time stepping paramters ( PARM03 in namelist )
(PID.TID 0000.0001) //
(PID.TID 0000.0001) deltaTMom =   /* Momentum equation timestep ( s ) */
(PID.TID 0000.0001)                 6.000000000000000E+02
(PID.TID 0000.0001)     ;
(PID.TID 0000.0001) deltaTFreeSurf = /* FreeSurface equation timestep ( s ) */
(PID.TID 0000.0001)                 6.000000000000000E+02
(PID.TID 0000.0001)     ;
(PID.TID 0000.0001) dTtracerLev =  /* Tracer equation timestep ( s ) */
(PID.TID 0000.0001)     8 @  6.000000000000000E+02              /* K =  1:  8 */
(PID.TID 0000.0001)     ;
(PID.TID 0000.0001) deltaTClock  =   /* Model clock timestep ( s ) */
(PID.TID 0000.0001)                 6.000000000000000E+02
(PID.TID 0000.0001)     ;
(PID.TID 0000.0001) cAdjFreq =   /* Convective adjustment interval ( s ) */
(PID.TID 0000.0001)                 0.000000000000000E+00
(PID.TID 0000.0001)     ;
(PID.TID 0000.0001) momForcingOutAB = /* =1: take Momentum Forcing out of Adams-Bash. stepping */
(PID.TID 0000.0001)                       0
(PID.TID 0000.0001)     ;
(PID.TID 0000.0001) tracForcingOutAB = /* =1: take T,S,pTr Forcing out of Adams-Bash. stepping */
(PID.TID 0000.0001)                       0
(PID.TID 0000.0001)     ;
(PID.TID 0000.0001) momDissip_In_AB = /* put Dissipation Tendency in Adams-Bash. stepping */
(PID.TID 0000.0001)                   F
(PID.TID 0000.0001)     ;
(PID.TID 0000.0001) doAB_onGtGs = /* apply AB on Tendencies (rather than on T,S)*/
(PID.TID 0000.0001)                   F
(PID.TID 0000.0001)     ;
(PID.TID 0000.0001) abEps =   /* Adams-Bashforth-2 stabilizing weight */
(PID.TID 0000.0001)                 1.000000000000000E-01
(PID.TID 0000.0001)     ;
(PID.TID 0000.0001) pickupStrictlyMatch= /* stop if pickup do not strictly match */
(PID.TID 0000.0001)                   T
(PID.TID 0000.0001)     ;
(PID.TID 0000.0001) nIter0   =   /* Run starting timestep number */
(PID.TID 0000.0001)                       0
(PID.TID 0000.0001)     ;
(PID.TID 0000.0001) nTimeSteps = /* Number of timesteps */
(PID.TID 0000.0001)                      10
(PID.TID 0000.0001)     ;
(PID.TID 0000.0001) nEndIter =   /* Run ending timestep number */
(PID.TID 0000.0001)                      10
(PID.TID 0000.0001)     ;
(PID.TID 0000.0001) baseTime =   /* Model base time ( s ) */
(PID.TID 0000.0001)                 1.080000000000000E+04
(PID.TID 0000.0001)     ;
(PID.TID 0000.0001) startTime =  /* Run start time ( s ) */
(PID.TID 0000.0001)                 1.080000000000000E+04
(PID.TID 0000.0001)     ;
(PID.TID 0000.0001) endTime  =   /* Integration ending time ( s ) */
(PID.TID 0000.0001)                 1.680000000000000E+04
(PID.TID 0000.0001)     ;
(PID.TID 0000.0001) pChkPtFreq = /* Permanent restart/pickup file interval ( s ) */
(PID.TID 0000.0001)                 0.000000000000000E+00
(PID.TID 0000.0001)     ;
(PID.TID 0000.0001) chkPtFreq  = /* Rolling restart/pickup file interval ( s ) */
(PID.TID 0000.0001)                 0.000000000000000E+00
(PID.TID 0000.0001)     ;
(PID.TID 0000.0001) pickup_write_mdsio =   /* Model IO flag. */
(PID.TID 0000.0001)                   T
(PID.TID 0000.0001)     ;
(PID.TID 0000.0001) pickup_read_mdsio =   /* Model IO flag. */
(PID.TID 0000.0001)                   T
(PID.TID 0000.0001)     ;
(PID.TID 0000.0001) pickup_write_immed =   /* Model IO flag. */
(PID.TID 0000.0001)                   F
(PID.TID 0000.0001)     ;
(PID.TID 0000.0001) writePickupAtEnd =   /* Model IO flag. */
(PID.TID 0000.0001)                   T
(PID.TID 0000.0001)     ;
(PID.TID 0000.0001) dumpFreq =   /* Model state write out interval ( s ). */
(PID.TID 0000.0001)                 1.080000000000000E+04
(PID.TID 0000.0001)     ;
(PID.TID 0000.0001) dumpInitAndLast= /* write out Initial & Last iter. model state */
(PID.TID 0000.0001)                   T
(PID.TID 0000.0001)     ;
(PID.TID 0000.0001) snapshot_mdsio =   /* Model IO flag. */
(PID.TID 0000.0001)                   T
(PID.TID 0000.0001)     ;
(PID.TID 0000.0001) monitorFreq =   /* Monitor output interval ( s ). */
(PID.TID 0000.0001)                 1.000000000000000E+00
(PID.TID 0000.0001)     ;
(PID.TID 0000.0001) monitorSelect = /* select group of variables to monitor */
(PID.TID 0000.0001)                       2
(PID.TID 0000.0001)     ;
(PID.TID 0000.0001) monitor_stdio =   /* Model IO flag. */
(PID.TID 0000.0001)                   T
(PID.TID 0000.0001)     ;
(PID.TID 0000.0001) externForcingPeriod =   /* forcing period (s) */
(PID.TID 0000.0001)                 2.160000000000000E+04
(PID.TID 0000.0001)     ;
(PID.TID 0000.0001) externForcingCycle =   /* period of the cyle (s). */
(PID.TID 0000.0001)                 4.320000000000000E+04
(PID.TID 0000.0001)     ;
(PID.TID 0000.0001) tauThetaClimRelax =   /* relaxation time scale (s) */
(PID.TID 0000.0001)                 0.000000000000000E+00
(PID.TID 0000.0001)     ;
(PID.TID 0000.0001) tauSaltClimRelax =   /* relaxation time scale (s) */
(PID.TID 0000.0001)                 0.000000000000000E+00
(PID.TID 0000.0001)     ;
(PID.TID 0000.0001) latBandClimRelax =   /* max. Lat. where relaxation */
(PID.TID 0000.0001)                 6.300000000000000E+05
(PID.TID 0000.0001)     ;
(PID.TID 0000.0001) //
(PID.TID 0000.0001) // Gridding paramters ( PARM04 in namelist )
(PID.TID 0000.0001) //
(PID.TID 0000.0001) usingCartesianGrid = /* Cartesian coordinates flag ( True/False ) */
(PID.TID 0000.0001)                   T
(PID.TID 0000.0001)     ;
(PID.TID 0000.0001) usingCylindricalGrid = /* Cylindrical coordinates flag ( True/False ) */
(PID.TID 0000.0001)                   F
(PID.TID 0000.0001)     ;
(PID.TID 0000.0001) usingSphericalPolarGrid = /* Spherical coordinates flag ( True/False ) */
(PID.TID 0000.0001)                   F
(PID.TID 0000.0001)     ;
(PID.TID 0000.0001) usingCurvilinearGrid = /* Curvilinear coordinates flag ( True/False ) */
(PID.TID 0000.0001)                   F
(PID.TID 0000.0001)     ;
(PID.TID 0000.0001) selectSigmaCoord = /* Hybrid-Sigma Vert. Coordinate option */
(PID.TID 0000.0001)                       0
(PID.TID 0000.0001)     ;
(PID.TID 0000.0001) Ro_SeaLevel = /* r(1) ( units of r ==  m ) */
(PID.TID 0000.0001)                 0.000000000000000E+00
(PID.TID 0000.0001)     ;
(PID.TID 0000.0001) rSigmaBnd = /* r/sigma transition ( units of r ==  m ) */
(PID.TID 0000.0001)                 1.234567000000000E+05
(PID.TID 0000.0001)     ;
(PID.TID 0000.0001) rkSign =   /* index orientation relative to vertical coordinate */
(PID.TID 0000.0001)                -1.000000000000000E+00
(PID.TID 0000.0001)     ;
(PID.TID 0000.0001) gravitySign = /* gravity orientation relative to vertical coordinate */
(PID.TID 0000.0001)                -1.000000000000000E+00
(PID.TID 0000.0001)     ;
(PID.TID 0000.0001) mass2rUnit = /* convert mass per unit area [kg/m2] to r-units [m] */
(PID.TID 0000.0001)                 1.000200040008002E-03
(PID.TID 0000.0001)     ;
(PID.TID 0000.0001) rUnit2mass = /* convert r-units [m] to mass per unit area [kg/m2] */
(PID.TID 0000.0001)                 9.998000000000000E+02
(PID.TID 0000.0001)     ;
(PID.TID 0000.0001) drC =   /* C spacing ( units of r ) */
(PID.TID 0000.0001)                 2.812500000000000E+02,      /* K =  1 */
(PID.TID 0000.0001)     7 @  5.625000000000000E+02,             /* K =  2:  8 */
(PID.TID 0000.0001)                 2.812500000000000E+02       /* K =  9 */
(PID.TID 0000.0001)     ;
(PID.TID 0000.0001) drF =   /* W spacing ( units of r ) */
(PID.TID 0000.0001)     8 @  5.625000000000000E+02              /* K =  1:  8 */
(PID.TID 0000.0001)     ;
(PID.TID 0000.0001) delX = /* U spacing ( m - cartesian, degrees - spherical ) */
(PID.TID 0000.0001)    80 @  5.000000000000000E+03              /* I =  1: 80 */
(PID.TID 0000.0001)     ;
(PID.TID 0000.0001) delY = /* V spacing ( m - cartesian, degrees - spherical ) */
(PID.TID 0000.0001)    42 @  5.000000000000000E+03              /* J =  1: 42 */
(PID.TID 0000.0001)     ;
(PID.TID 0000.0001) xgOrigin = /* X-axis origin of West  edge (cartesian: m, lat-lon: deg) */
(PID.TID 0000.0001)                 0.000000000000000E+00
(PID.TID 0000.0001)     ;
(PID.TID 0000.0001) ygOrigin = /* Y-axis origin of South edge (cartesian: m, lat-lon: deg) */
(PID.TID 0000.0001)                 0.000000000000000E+00
(PID.TID 0000.0001)     ;
(PID.TID 0000.0001) rSphere =  /* Radius ( ignored - cartesian, m - spherical ) */
(PID.TID 0000.0001)                 6.370000000000000E+06
(PID.TID 0000.0001)     ;
(PID.TID 0000.0001) deepAtmosphere = /* Deep/Shallow Atmosphere flag (True/False) */
(PID.TID 0000.0001)                   F
(PID.TID 0000.0001)     ;
(PID.TID 0000.0001) xC =  /* xC(:,1,:,1) : P-point X coord ( deg. or m if cartesian) */
(PID.TID 0000.0001)                 2.500000000000000E+03,      /* I =  1 */
(PID.TID 0000.0001)                 7.500000000000000E+03,      /* I =  2 */
(PID.TID 0000.0001)                 1.250000000000000E+04,      /* I =  3 */
(PID.TID 0000.0001)      . . .
(PID.TID 0000.0001)                 8.750000000000000E+04,      /* I = 18 */
(PID.TID 0000.0001)                 9.250000000000000E+04,      /* I = 19 */
(PID.TID 0000.0001)                 9.750000000000000E+04,      /* I = 20 */
(PID.TID 0000.0001)                 1.025000000000000E+05,      /* I = 21 */
(PID.TID 0000.0001)                 1.075000000000000E+05,      /* I = 22 */
(PID.TID 0000.0001)                 1.125000000000000E+05,      /* I = 23 */
(PID.TID 0000.0001)      . . .
(PID.TID 0000.0001)                 1.875000000000000E+05,      /* I = 38 */
(PID.TID 0000.0001)                 1.925000000000000E+05,      /* I = 39 */
(PID.TID 0000.0001)                 1.975000000000000E+05,      /* I = 40 */
(PID.TID 0000.0001)                 2.025000000000000E+05,      /* I = 41 */
(PID.TID 0000.0001)                 2.075000000000000E+05,      /* I = 42 */
(PID.TID 0000.0001)                 2.125000000000000E+05,      /* I = 43 */
(PID.TID 0000.0001)      . . .
(PID.TID 0000.0001)                 2.875000000000000E+05,      /* I = 58 */
(PID.TID 0000.0001)                 2.925000000000000E+05,      /* I = 59 */
(PID.TID 0000.0001)                 2.975000000000000E+05,      /* I = 60 */
(PID.TID 0000.0001)                 3.025000000000000E+05,      /* I = 61 */
(PID.TID 0000.0001)                 3.075000000000000E+05,      /* I = 62 */
(PID.TID 0000.0001)                 3.125000000000000E+05,      /* I = 63 */
(PID.TID 0000.0001)      . . .
(PID.TID 0000.0001)                 3.875000000000000E+05,      /* I = 78 */
(PID.TID 0000.0001)                 3.925000000000000E+05,      /* I = 79 */
(PID.TID 0000.0001)                 3.975000000000000E+05       /* I = 80 */
(PID.TID 0000.0001)     ;
(PID.TID 0000.0001) yC =  /* yC(1,:,1,:) : P-point Y coord ( deg. or m if cartesian) */
(PID.TID 0000.0001)                 2.500000000000000E+03,      /* J =  1 */
(PID.TID 0000.0001)                 7.500000000000000E+03,      /* J =  2 */
(PID.TID 0000.0001)                 1.250000000000000E+04,      /* J =  3 */
(PID.TID 0000.0001)                 1.750000000000000E+04,      /* J =  4 */
(PID.TID 0000.0001)                 2.250000000000000E+04,      /* J =  5 */
(PID.TID 0000.0001)                 2.750000000000000E+04,      /* J =  6 */
(PID.TID 0000.0001)                 3.250000000000000E+04,      /* J =  7 */
(PID.TID 0000.0001)                 3.750000000000000E+04,      /* J =  8 */
(PID.TID 0000.0001)                 4.250000000000000E+04,      /* J =  9 */
(PID.TID 0000.0001)                 4.750000000000000E+04,      /* J = 10 */
(PID.TID 0000.0001)                 5.250000000000000E+04,      /* J = 11 */
(PID.TID 0000.0001)                 5.750000000000000E+04,      /* J = 12 */
(PID.TID 0000.0001)                 6.250000000000000E+04,      /* J = 13 */
(PID.TID 0000.0001)                 6.750000000000000E+04,      /* J = 14 */
(PID.TID 0000.0001)                 7.250000000000000E+04,      /* J = 15 */
(PID.TID 0000.0001)                 7.750000000000000E+04,      /* J = 16 */
(PID.TID 0000.0001)                 8.250000000000000E+04,      /* J = 17 */
(PID.TID 0000.0001)                 8.750000000000000E+04,      /* J = 18 */
(PID.TID 0000.0001)                 9.250000000000000E+04,      /* J = 19 */
(PID.TID 0000.0001)                 9.750000000000000E+04,      /* J = 20 */
(PID.TID 0000.0001)                 1.025000000000000E+05,      /* J = 21 */
(PID.TID 0000.0001)                 1.075000000000000E+05,      /* J = 22 */
(PID.TID 0000.0001)                 1.125000000000000E+05,      /* J = 23 */
(PID.TID 0000.0001)                 1.175000000000000E+05,      /* J = 24 */
(PID.TID 0000.0001)                 1.225000000000000E+05,      /* J = 25 */
(PID.TID 0000.0001)                 1.275000000000000E+05,      /* J = 26 */
(PID.TID 0000.0001)                 1.325000000000000E+05,      /* J = 27 */
(PID.TID 0000.0001)                 1.375000000000000E+05,      /* J = 28 */
(PID.TID 0000.0001)                 1.425000000000000E+05,      /* J = 29 */
(PID.TID 0000.0001)                 1.475000000000000E+05,      /* J = 30 */
(PID.TID 0000.0001)                 1.525000000000000E+05,      /* J = 31 */
(PID.TID 0000.0001)                 1.575000000000000E+05,      /* J = 32 */
(PID.TID 0000.0001)                 1.625000000000000E+05,      /* J = 33 */
(PID.TID 0000.0001)                 1.675000000000000E+05,      /* J = 34 */
(PID.TID 0000.0001)                 1.725000000000000E+05,      /* J = 35 */
(PID.TID 0000.0001)                 1.775000000000000E+05,      /* J = 36 */
(PID.TID 0000.0001)                 1.825000000000000E+05,      /* J = 37 */
(PID.TID 0000.0001)                 1.875000000000000E+05,      /* J = 38 */
(PID.TID 0000.0001)                 1.925000000000000E+05,      /* J = 39 */
(PID.TID 0000.0001)                 1.975000000000000E+05,      /* J = 40 */
(PID.TID 0000.0001)                 2.025000000000000E+05,      /* J = 41 */
(PID.TID 0000.0001)                 2.075000000000000E+05       /* J = 42 */
(PID.TID 0000.0001)     ;
(PID.TID 0000.0001) rcoord = /* P-point R coordinate (  units of r ) */
(PID.TID 0000.0001)                -2.812500000000000E+02,      /* K =  1 */
(PID.TID 0000.0001)                -8.437500000000000E+02,      /* K =  2 */
(PID.TID 0000.0001)                -1.406250000000000E+03,      /* K =  3 */
(PID.TID 0000.0001)                -1.968750000000000E+03,      /* K =  4 */
(PID.TID 0000.0001)                -2.531250000000000E+03,      /* K =  5 */
(PID.TID 0000.0001)                -3.093750000000000E+03,      /* K =  6 */
(PID.TID 0000.0001)                -3.656250000000000E+03,      /* K =  7 */
(PID.TID 0000.0001)                -4.218750000000000E+03       /* K =  8 */
(PID.TID 0000.0001)     ;
(PID.TID 0000.0001) rF =   /* W-Interf. R coordinate (  units of r ) */
(PID.TID 0000.0001)                 0.000000000000000E+00,      /* K =  1 */
(PID.TID 0000.0001)                -5.625000000000000E+02,      /* K =  2 */
(PID.TID 0000.0001)                -1.125000000000000E+03,      /* K =  3 */
(PID.TID 0000.0001)                -1.687500000000000E+03,      /* K =  4 */
(PID.TID 0000.0001)                -2.250000000000000E+03,      /* K =  5 */
(PID.TID 0000.0001)                -2.812500000000000E+03,      /* K =  6 */
(PID.TID 0000.0001)                -3.375000000000000E+03,      /* K =  7 */
(PID.TID 0000.0001)                -3.937500000000000E+03,      /* K =  8 */
(PID.TID 0000.0001)                -4.500000000000000E+03       /* K =  9 */
(PID.TID 0000.0001)     ;
(PID.TID 0000.0001) deepFacC = /* deep-model grid factor @ cell-Center (-) */
(PID.TID 0000.0001)     8 @  1.000000000000000E+00              /* K =  1:  8 */
(PID.TID 0000.0001)     ;
(PID.TID 0000.0001) deepFacF = /* deep-model grid factor @ W-Interface (-) */
(PID.TID 0000.0001)     9 @  1.000000000000000E+00              /* K =  1:  9 */
(PID.TID 0000.0001)     ;
(PID.TID 0000.0001) rVel2wUnit = /* convert units: rVel -> wSpeed (=1 if z-coord)*/
(PID.TID 0000.0001)     9 @  1.000000000000000E+00              /* K =  1:  9 */
(PID.TID 0000.0001)     ;
(PID.TID 0000.0001) wUnit2rVel = /* convert units: wSpeed -> rVel (=1 if z-coord)*/
(PID.TID 0000.0001)     9 @  1.000000000000000E+00              /* K =  1:  9 */
(PID.TID 0000.0001)     ;
(PID.TID 0000.0001) dBdrRef = /* Vertical grad. of reference buoyancy [(m/s/r)^2] */
(PID.TID 0000.0001)                 0.000000000000000E+00,      /* K =  1 */
(PID.TID 0000.0001)                 6.944468479999999E-07,      /* K =  2 */
(PID.TID 0000.0001)                 6.944433600000000E-07,      /* K =  3 */
(PID.TID 0000.0001)                 6.944444064000000E-07,      /* K =  4 */
(PID.TID 0000.0001)                 6.944447552000002E-07,      /* K =  5 */
(PID.TID 0000.0001)                 6.944444064000000E-07,      /* K =  6 */
(PID.TID 0000.0001)                 6.944433600000000E-07,      /* K =  7 */
(PID.TID 0000.0001)                 6.944468479999999E-07       /* K =  8 */
(PID.TID 0000.0001)     ;
(PID.TID 0000.0001) rotateGrid = /* use rotated grid ( True/False ) */
(PID.TID 0000.0001)                   F
(PID.TID 0000.0001)     ;
(PID.TID 0000.0001) phiEuler = /* Euler angle, rotation about original z-coordinate [rad] */
(PID.TID 0000.0001)                 0.000000000000000E+00
(PID.TID 0000.0001)     ;
(PID.TID 0000.0001) thetaEuler = /* Euler angle, rotation about new x-coordinate [rad] */
(PID.TID 0000.0001)                 0.000000000000000E+00
(PID.TID 0000.0001)     ;
(PID.TID 0000.0001) psiEuler = /* Euler angle, rotation about new z-coordinate [rad] */
(PID.TID 0000.0001)                 0.000000000000000E+00
(PID.TID 0000.0001)     ;
(PID.TID 0000.0001) dxF =  /* dxF(:,1,:,1) ( units: m ) */
(PID.TID 0000.0001)    80 @  5.000000000000000E+03              /* I =  1: 80 */
(PID.TID 0000.0001)     ;
(PID.TID 0000.0001) dxF =  /* dxF(1,:,1,:) ( units: m ) */
(PID.TID 0000.0001)    42 @  5.000000000000000E+03              /* J =  1: 42 */
(PID.TID 0000.0001)     ;
(PID.TID 0000.0001) dyF =  /* dyF(:,1,:,1) ( units: m ) */
(PID.TID 0000.0001)    80 @  5.000000000000000E+03              /* I =  1: 80 */
(PID.TID 0000.0001)     ;
(PID.TID 0000.0001) dyF =  /* dyF(1,:,1,:) ( units: m ) */
(PID.TID 0000.0001)    42 @  5.000000000000000E+03              /* J =  1: 42 */
(PID.TID 0000.0001)     ;
(PID.TID 0000.0001) dxG =  /* dxG(:,1,:,1) ( units: m ) */
(PID.TID 0000.0001)    80 @  5.000000000000000E+03              /* I =  1: 80 */
(PID.TID 0000.0001)     ;
(PID.TID 0000.0001) dxG =  /* dxG(1,:,1,:) ( units: m ) */
(PID.TID 0000.0001)    42 @  5.000000000000000E+03              /* J =  1: 42 */
(PID.TID 0000.0001)     ;
(PID.TID 0000.0001) dyG =  /* dyG(:,1,:,1) ( units: m ) */
(PID.TID 0000.0001)    80 @  5.000000000000000E+03              /* I =  1: 80 */
(PID.TID 0000.0001)     ;
(PID.TID 0000.0001) dyG =  /* dyG(1,:,1,:) ( units: m ) */
(PID.TID 0000.0001)    42 @  5.000000000000000E+03              /* J =  1: 42 */
(PID.TID 0000.0001)     ;
(PID.TID 0000.0001) dxC =  /* dxC(:,1,:,1) ( units: m ) */
(PID.TID 0000.0001)    80 @  5.000000000000000E+03              /* I =  1: 80 */
(PID.TID 0000.0001)     ;
(PID.TID 0000.0001) dxC =  /* dxC(1,:,1,:) ( units: m ) */
(PID.TID 0000.0001)    42 @  5.000000000000000E+03              /* J =  1: 42 */
(PID.TID 0000.0001)     ;
(PID.TID 0000.0001) dyC =  /* dyC(:,1,:,1) ( units: m ) */
(PID.TID 0000.0001)    80 @  5.000000000000000E+03              /* I =  1: 80 */
(PID.TID 0000.0001)     ;
(PID.TID 0000.0001) dyC =  /* dyC(1,:,1,:) ( units: m ) */
(PID.TID 0000.0001)    42 @  5.000000000000000E+03              /* J =  1: 42 */
(PID.TID 0000.0001)     ;
(PID.TID 0000.0001) dxV =  /* dxV(:,1,:,1) ( units: m ) */
(PID.TID 0000.0001)    80 @  5.000000000000000E+03              /* I =  1: 80 */
(PID.TID 0000.0001)     ;
(PID.TID 0000.0001) dxV =  /* dxV(1,:,1,:) ( units: m ) */
(PID.TID 0000.0001)    42 @  5.000000000000000E+03              /* J =  1: 42 */
(PID.TID 0000.0001)     ;
(PID.TID 0000.0001) dyU =  /* dyU(:,1,:,1) ( units: m ) */
(PID.TID 0000.0001)    80 @  5.000000000000000E+03              /* I =  1: 80 */
(PID.TID 0000.0001)     ;
(PID.TID 0000.0001) dyU =  /* dyU(1,:,1,:) ( units: m ) */
(PID.TID 0000.0001)    42 @  5.000000000000000E+03              /* J =  1: 42 */
(PID.TID 0000.0001)     ;
(PID.TID 0000.0001) rA  =  /* rA (:,1,:,1) ( units: m^2 ) */
(PID.TID 0000.0001)    80 @  2.500000000000000E+07              /* I =  1: 80 */
(PID.TID 0000.0001)     ;
(PID.TID 0000.0001) rA  =  /* rA (1,:,1,:) ( units: m^2 ) */
(PID.TID 0000.0001)    42 @  2.500000000000000E+07              /* J =  1: 42 */
(PID.TID 0000.0001)     ;
(PID.TID 0000.0001) rAw =  /* rAw(:,1,:,1) ( units: m^2 ) */
(PID.TID 0000.0001)    80 @  2.500000000000000E+07              /* I =  1: 80 */
(PID.TID 0000.0001)     ;
(PID.TID 0000.0001) rAw =  /* rAw(1,:,1,:) ( units: m^2 ) */
(PID.TID 0000.0001)    42 @  2.500000000000000E+07              /* J =  1: 42 */
(PID.TID 0000.0001)     ;
(PID.TID 0000.0001) rAs =  /* rAs(:,1,:,1) ( units: m^2 ) */
(PID.TID 0000.0001)    80 @  2.500000000000000E+07              /* I =  1: 80 */
(PID.TID 0000.0001)     ;
(PID.TID 0000.0001) rAs =  /* rAs(1,:,1,:) ( units: m^2 ) */
(PID.TID 0000.0001)    42 @  2.500000000000000E+07              /* J =  1: 42 */
(PID.TID 0000.0001)     ;
(PID.TID 0000.0001) globalArea = /* Integrated horizontal Area (m^2) */
(PID.TID 0000.0001)                 7.800000000000000E+10
(PID.TID 0000.0001)     ;
(PID.TID 0000.0001) // =======================================================
(PID.TID 0000.0001) // End of Model config. summary
(PID.TID 0000.0001) // =======================================================
(PID.TID 0000.0001) 
(PID.TID 0000.0001) == Packages configuration : Check & print summary ==
(PID.TID 0000.0001) 
(PID.TID 0000.0001) OBCS_CHECK: #define ALLOW_OBCS
(PID.TID 0000.0001) OBCS_CHECK: start summary:
(PID.TID 0000.0001) useOBCSprescribe = /* prescribe OB values */
(PID.TID 0000.0001)                   T
(PID.TID 0000.0001)     ;
(PID.TID 0000.0001) useOBCSbalance = /* balance the flow through OB */
(PID.TID 0000.0001)                   F
(PID.TID 0000.0001)     ;
(PID.TID 0000.0001) OBCS_uvApplyFac = /* Factor to apply to U,V 2nd column/row */
(PID.TID 0000.0001)                 1.000000000000000E+00
(PID.TID 0000.0001)     ;
(PID.TID 0000.0001) OBCS_u1_adv_T = /* Temp uses upwind adv-scheme @ OB */
(PID.TID 0000.0001)                       0
(PID.TID 0000.0001)     ;
(PID.TID 0000.0001) OBCS_u1_adv_S = /* Salt uses upwind adv-scheme @ OB */
(PID.TID 0000.0001)                       0
(PID.TID 0000.0001)     ;
(PID.TID 0000.0001) OBCS_monitorFreq = /* monitor output frequency [s] */
(PID.TID 0000.0001)                 1.200000000000000E+03
(PID.TID 0000.0001)     ;
(PID.TID 0000.0001) OBCS_monSelect = /* select group of variables to monitor */
(PID.TID 0000.0001)                       1
(PID.TID 0000.0001)     ;
(PID.TID 0000.0001) useOBCStides = /* apply tidal forcing through OB */
(PID.TID 0000.0001)                   F
(PID.TID 0000.0001)     ;
(PID.TID 0000.0001) tidalPeriod = /* (s) */
(PID.TID 0000.0001)    10 @  0.000000000000000E+00              /* I =  1: 10 */
(PID.TID 0000.0001)     ;
(PID.TID 0000.0001) OB_indexNone = /* null value for OB index (i.e. no OB) */
(PID.TID 0000.0001)                     -99
(PID.TID 0000.0001)     ;
(PID.TID 0000.0001) ======== Tile bi=   1 , bj=   1 ========
(PID.TID 0000.0001)  OB_Jn = /* Northern OB local indices */
(PID.TID 0000.0001)    46 @      -99                            /* I = -2: 43 */
(PID.TID 0000.0001)  OB_Js = /* Southern OB local indices */
(PID.TID 0000.0001)    46 @        1                            /* I = -2: 43 */
(PID.TID 0000.0001)  OB_Ie = /* Eastern OB local indices */
(PID.TID 0000.0001)    27 @      -99                            /* J = -2: 24 */
(PID.TID 0000.0001)  OB_Iw = /* Western OB local indices */
(PID.TID 0000.0001)    27 @        1                            /* J = -2: 24 */
(PID.TID 0000.0001) ======== Tile bi=   2 , bj=   1 ========
(PID.TID 0000.0001)  OB_Jn = /* Northern OB local indices */
(PID.TID 0000.0001)    46 @      -99                            /* I = -2: 43 */
(PID.TID 0000.0001)  OB_Js = /* Southern OB local indices */
(PID.TID 0000.0001)    46 @        1                            /* I = -2: 43 */
(PID.TID 0000.0001)  OB_Ie = /* Eastern OB local indices */
(PID.TID 0000.0001)    27 @       40                            /* J = -2: 24 */
(PID.TID 0000.0001)  OB_Iw = /* Western OB local indices */
(PID.TID 0000.0001)    27 @      -99                            /* J = -2: 24 */
(PID.TID 0000.0001) ======== Tile bi=   1 , bj=   2 ========
(PID.TID 0000.0001)  OB_Jn = /* Northern OB local indices */
(PID.TID 0000.0001)    46 @       21                            /* I = -2: 43 */
(PID.TID 0000.0001)  OB_Js = /* Southern OB local indices */
(PID.TID 0000.0001)    46 @      -99                            /* I = -2: 43 */
(PID.TID 0000.0001)  OB_Ie = /* Eastern OB local indices */
(PID.TID 0000.0001)    27 @      -99                            /* J = -2: 24 */
(PID.TID 0000.0001)  OB_Iw = /* Western OB local indices */
(PID.TID 0000.0001)    27 @        1                            /* J = -2: 24 */
(PID.TID 0000.0001) ======== Tile bi=   2 , bj=   2 ========
(PID.TID 0000.0001)  OB_Jn = /* Northern OB local indices */
(PID.TID 0000.0001)    46 @       21                            /* I = -2: 43 */
(PID.TID 0000.0001)  OB_Js = /* Southern OB local indices */
(PID.TID 0000.0001)    46 @      -99                            /* I = -2: 43 */
(PID.TID 0000.0001)  OB_Ie = /* Eastern OB local indices */
(PID.TID 0000.0001)    27 @       40                            /* J = -2: 24 */
(PID.TID 0000.0001)  OB_Iw = /* Western OB local indices */
(PID.TID 0000.0001)    27 @      -99                            /* J = -2: 24 */
(PID.TID 0000.0001) OBCS_CHECK: end summary.
(PID.TID 0000.0001) OBCS_CHECK: #define ALLOW_ORLANSKI
(PID.TID 0000.0001) OBCS_CHECK: #define ALLOW_OBCS_STEVENS
(PID.TID 0000.0001) OBCS_CHECK: set-up OK
(PID.TID 0000.0001) OBCS_CHECK: check Inside Mask and OB locations: OK
(PID.TID 0000.0001) PTRACERS_CHECK: #define ALLOW_PTRACERS
(PID.TID 0000.0001) // ===================================
(PID.TID 0000.0001) // PTRACERS parameters
(PID.TID 0000.0001) // ===================================
(PID.TID 0000.0001) PTRACERS_numInUse = /* number of tracers */
(PID.TID 0000.0001)                       1
(PID.TID 0000.0001)     ;
(PID.TID 0000.0001) PTRACERS_Iter0 = /* timestep number when tracers are initialized */
(PID.TID 0000.0001)                       0
(PID.TID 0000.0001)     ;
(PID.TID 0000.0001) PTRACERS_startAllTrc =/* all tracers start @ startTime */
(PID.TID 0000.0001)                   T
(PID.TID 0000.0001)     ;
(PID.TID 0000.0001) PTRACERS_doAB_onGpTr =/* apply AB on Tendencies (rather than on Tracers) */
(PID.TID 0000.0001)                   F
(PID.TID 0000.0001)     ;
(PID.TID 0000.0001) PTRACERS_addSrelax2EmP =/* add Salt relaxation to EmP */
(PID.TID 0000.0001)                   F
(PID.TID 0000.0001)     ;
(PID.TID 0000.0001) PTRACERS_dTLev =   /* Ptracer timestep ( s ) */
(PID.TID 0000.0001)     8 @  6.000000000000000E+02              /* K =  1:  8 */
(PID.TID 0000.0001)     ;
(PID.TID 0000.0001) PTRACERS_monitorFreq = /* Frequency^-1 for monitor output (s) */
(PID.TID 0000.0001)                 1.000000000000000E+00
(PID.TID 0000.0001)     ;
(PID.TID 0000.0001) PTRACERS_dumpFreq = /* Frequency^-1 for snapshot output (s) */
(PID.TID 0000.0001)                 1.080000000000000E+04
(PID.TID 0000.0001)     ;
(PID.TID 0000.0001) PTRACERS_taveFreq = /* Frequency^-1 for time-Aver. output (s) */
(PID.TID 0000.0001)                 0.000000000000000E+00
(PID.TID 0000.0001)     ;
(PID.TID 0000.0001) PTRACERS_useRecords = /* all tracers in 1 file */
(PID.TID 0000.0001)                   F
(PID.TID 0000.0001)     ;
(PID.TID 0000.0001) PTRACERS_timeave_mnc = /* use MNC for Tave output */
(PID.TID 0000.0001)                   F
(PID.TID 0000.0001)     ;
(PID.TID 0000.0001) PTRACERS_snapshot_mnc = /* use MNC for snapshot output */
(PID.TID 0000.0001)                   F
(PID.TID 0000.0001)     ;
(PID.TID 0000.0001) PTRACERS_pickup_write_mnc = /* use MNC for writing pickups */
(PID.TID 0000.0001)                   F
(PID.TID 0000.0001)     ;
(PID.TID 0000.0001) PTRACERS_pickup_read_mnc = /* use MNC for reading pickups */
(PID.TID 0000.0001)                   F
(PID.TID 0000.0001)     ;
(PID.TID 0000.0001)  -----------------------------------
(PID.TID 0000.0001)  tracer number :    1
(PID.TID 0000.0001) PTRACERS_names = /* Tracer short name */
(PID.TID 0000.0001)               'salt_mimic'
(PID.TID 0000.0001)     ;
(PID.TID 0000.0001) PTRACERS_long_names = /* Tracer long name */
(PID.TID 0000.0001)               ''
(PID.TID 0000.0001)     ;
(PID.TID 0000.0001) PTRACERS_ioLabel = /* tracer IO Label */
(PID.TID 0000.0001)               '01'
(PID.TID 0000.0001)     ;
(PID.TID 0000.0001) PTRACERS_advScheme = /* Advection Scheme */
(PID.TID 0000.0001)                       4
(PID.TID 0000.0001)     ;
(PID.TID 0000.0001) PTRACERS_SOM_Advection = /* tracer uses SOM advection scheme */
(PID.TID 0000.0001)                   F
(PID.TID 0000.0001)     ;
(PID.TID 0000.0001) PTRACERS_ImplVertAdv = /* implicit vert. advection flag */
(PID.TID 0000.0001)                   F
(PID.TID 0000.0001)     ;
(PID.TID 0000.0001) PTRACERS_MultiDimAdv = /* tracer uses Multi-Dim advection */
(PID.TID 0000.0001)                   F
(PID.TID 0000.0001)     ;
(PID.TID 0000.0001) PTRACERS_AdamsBashGtr = /* apply AB on tracer tendency */
(PID.TID 0000.0001)                   F
(PID.TID 0000.0001)     ;
(PID.TID 0000.0001) PTRACERS_AdamsBash_Tr = /* apply AB on passive tracer */
(PID.TID 0000.0001)                   T
(PID.TID 0000.0001)     ;
(PID.TID 0000.0001) PTRACERS_diffKh = /* Laplacian Diffusivity */
(PID.TID 0000.0001)                 1.000000000000000E+03
(PID.TID 0000.0001)     ;
(PID.TID 0000.0001) PTRACERS_diffK4 = /* Biharmonic Diffusivity */
(PID.TID 0000.0001)                 0.000000000000000E+00
(PID.TID 0000.0001)     ;
(PID.TID 0000.0001) PTRACERS_diffKrNr = /* Vertical Diffusivity */
(PID.TID 0000.0001)     8 @  1.000000000000000E-05              /* K =  1:  8 */
(PID.TID 0000.0001)     ;
(PID.TID 0000.0001) PTRACERS_useGMRedi = /* apply GM-Redi */
(PID.TID 0000.0001)                   F
(PID.TID 0000.0001)     ;
(PID.TID 0000.0001) PTRACERS_useDWNSLP = /* apply DOWN-SLOPE Flow */
(PID.TID 0000.0001)                   F
(PID.TID 0000.0001)     ;
(PID.TID 0000.0001) PTRACERS_useKPP = /* apply KPP scheme */
(PID.TID 0000.0001)                   F
(PID.TID 0000.0001)     ;
(PID.TID 0000.0001) PTRACERS_ref = /* Reference vertical profile */
(PID.TID 0000.0001)     8 @  3.500000000000000E+01              /* K =  1:  8 */
(PID.TID 0000.0001)     ;
(PID.TID 0000.0001) PTRACERS_EvPrRn =/* tracer conc. in Evap. & Rain */
(PID.TID 0000.0001)                 1.234567000000000E+05
(PID.TID 0000.0001)     ;
(PID.TID 0000.0001)  -----------------------------------
(PID.TID 0000.0001) GAD_CHECK: #define ALLOW_GENERIC_ADVDIFF
(PID.TID 0000.0001) // =======================================================
(PID.TID 0000.0001) // Check Model config. (CONFIG_CHECK):
(PID.TID 0000.0001) // CONFIG_CHECK : Normal End
(PID.TID 0000.0001) // =======================================================
(PID.TID 0000.0001) 
(PID.TID 0000.0001) Start initial hydrostatic pressure computation
(PID.TID 0000.0001) Pressure is predetermined for buoyancyRelation OCEANIC
(PID.TID 0000.0001) 
 OBCS_FIELDS_LOAD,         0 : iP,iLd,i0,i1=    2    0    1    2 ; Wght=  1.0000000000  0.0000000000
 OBCS_FIELDS_LOAD, it=         0 : Reading new data, i0,i1=    1    2 (prev=    2    0 )
(PID.TID 0000.0001)  MDS_READ_SEC_YZ: opening global file: OB_EastU.bin
(PID.TID 0000.0001)  MDS_READ_SEC_YZ: opening global file: OB_EastU.bin
(PID.TID 0000.0001)  MDS_READ_SEC_YZ: opening global file: OB_EastH.bin
(PID.TID 0000.0001)  MDS_READ_SEC_YZ: opening global file: OB_EastH.bin
(PID.TID 0000.0001)  MDS_READ_SEC_YZ: opening global file: OB_WestU.bin
(PID.TID 0000.0001)  MDS_READ_SEC_YZ: opening global file: OB_WestU.bin
(PID.TID 0000.0001)  MDS_READ_SEC_YZ: opening global file: OBzonalS.bin
(PID.TID 0000.0001)  MDS_READ_SEC_YZ: opening global file: OBzonalS.bin
(PID.TID 0000.0001)  MDS_READ_SEC_YZ: opening global file: OB_WestH.bin
(PID.TID 0000.0001)  MDS_READ_SEC_YZ: opening global file: OB_WestH.bin
(PID.TID 0000.0001)  MDS_READ_SEC_XZ: opening global file: OBmeridU.bin
(PID.TID 0000.0001)  MDS_READ_SEC_XZ: opening global file: OBmeridU.bin
(PID.TID 0000.0001)  MDS_READ_SEC_XZ: opening global file: OBmeridU.bin
(PID.TID 0000.0001)  MDS_READ_SEC_XZ: opening global file: OBmeridU.bin
(PID.TID 0000.0001)  MDS_READ_SEC_YZ: opening global file: OBzonalS.bin
(PID.TID 0000.0001)  MDS_READ_SEC_YZ: opening global file: OBzonalS.bin
(PID.TID 0000.0001) // =======================================================
(PID.TID 0000.0001) // Model current state
(PID.TID 0000.0001) // =======================================================
(PID.TID 0000.0001) 
(PID.TID 0000.0001) // =======================================================
(PID.TID 0000.0001) // Begin MONITOR dynamic field statistics
(PID.TID 0000.0001) // =======================================================
(PID.TID 0000.0001) %MON time_tsnumber                =                     0
(PID.TID 0000.0001) %MON time_secondsf                =   1.0800000000000E+04
(PID.TID 0000.0001) %MON dynstat_eta_max              =   0.0000000000000E+00
(PID.TID 0000.0001) %MON dynstat_eta_min              =   0.0000000000000E+00
(PID.TID 0000.0001) %MON dynstat_eta_mean             =   0.0000000000000E+00
(PID.TID 0000.0001) %MON dynstat_eta_sd               =   0.0000000000000E+00
(PID.TID 0000.0001) %MON dynstat_eta_del2             =   0.0000000000000E+00
(PID.TID 0000.0001) %MON dynstat_uvel_max             =   2.5250000000000E-01
(PID.TID 0000.0001) %MON dynstat_uvel_min             =   0.0000000000000E+00
(PID.TID 0000.0001) %MON dynstat_uvel_mean            =   6.6507519863536E-03
(PID.TID 0000.0001) %MON dynstat_uvel_sd              =   4.0232098670141E-02
(PID.TID 0000.0001) %MON dynstat_uvel_del2            =   5.1389523709943E-04
(PID.TID 0000.0001) %MON dynstat_vvel_max             =   0.0000000000000E+00
(PID.TID 0000.0001) %MON dynstat_vvel_min             =   0.0000000000000E+00
(PID.TID 0000.0001) %MON dynstat_vvel_mean            =   0.0000000000000E+00
(PID.TID 0000.0001) %MON dynstat_vvel_sd              =   0.0000000000000E+00
(PID.TID 0000.0001) %MON dynstat_vvel_del2            =   0.0000000000000E+00
(PID.TID 0000.0001) %MON dynstat_wvel_max             =   2.7755575615629E-17
(PID.TID 0000.0001) %MON dynstat_wvel_min             =  -3.1225022567583E-17
(PID.TID 0000.0001) %MON dynstat_wvel_mean            =   2.3109104919762E-21
(PID.TID 0000.0001) %MON dynstat_wvel_sd              =   1.2275037476285E-18
(PID.TID 0000.0001) %MON dynstat_wvel_del2            =   2.9863169910433E-20
(PID.TID 0000.0001) %MON dynstat_theta_max            =   6.9683400000000E-01
(PID.TID 0000.0001) %MON dynstat_theta_min            =  -6.9683400000000E-01
(PID.TID 0000.0001) %MON dynstat_theta_mean           =   2.0290053818661E-02
(PID.TID 0000.0001) %MON dynstat_theta_sd             =   4.5211958569214E-01
(PID.TID 0000.0001) %MON dynstat_theta_del2           =   0.0000000000000E+00
(PID.TID 0000.0001) %MON dynstat_salt_max             =   3.5000000000000E+01
(PID.TID 0000.0001) %MON dynstat_salt_min             =   3.5000000000000E+01
(PID.TID 0000.0001) %MON dynstat_salt_mean            =   3.5000000000000E+01
(PID.TID 0000.0001) %MON dynstat_salt_sd              =   1.1368683772162E-13
(PID.TID 0000.0001) %MON dynstat_salt_del2            =   7.4287972674412E-04
(PID.TID 0000.0001) %MON advcfl_uvel_max              =   3.0300000000000E-02
(PID.TID 0000.0001) %MON advcfl_vvel_max              =   0.0000000000000E+00
(PID.TID 0000.0001) %MON advcfl_wvel_max              =   6.6613381477509E-17
(PID.TID 0000.0001) %MON advcfl_W_hf_max              =   2.9605947323338E-17
(PID.TID 0000.0001) %MON pe_b_mean                    =   0.0000000000000E+00
(PID.TID 0000.0001) %MON ke_max                       =   1.5939062500000E-02
(PID.TID 0000.0001) %MON ke_mean                      =   4.1972878894855E-04
(PID.TID 0000.0001) %MON ke_vol                       =   3.3507127984312E+14
(PID.TID 0000.0001) %MON vort_r_min                   =  -5.0000000000000E-05
(PID.TID 0000.0001) %MON vort_r_max                   =   5.0000000000000E-05
(PID.TID 0000.0001) %MON vort_a_mean                  =   1.0000000000000E-04
(PID.TID 0000.0001) %MON vort_a_sd                    =   1.0868756421277E-05
(PID.TID 0000.0001) %MON vort_p_mean                  =   1.0161982423688E-04
(PID.TID 0000.0001) %MON vort_p_sd                    =   3.1004324650514E-05
(PID.TID 0000.0001) %MON surfExpan_theta_mean         =   1.5497619213575E-21
(PID.TID 0000.0001) %MON surfExpan_salt_mean          =   7.7840155973318E-20
(PID.TID 0000.0001) // =======================================================
(PID.TID 0000.0001) // End MONITOR dynamic field statistics
(PID.TID 0000.0001) // =======================================================
(PID.TID 0000.0001) // =======================================================
(PID.TID 0000.0001) // Begin OBCS MONITOR field statistics
(PID.TID 0000.0001) // =======================================================
(PID.TID 0000.0001) %MON obc_time_tsnumber            =                     0
(PID.TID 0000.0001) %MON obc_time_secondsf            =   1.0800000000000E+04
(PID.TID 0000.0001) %MON obc_E_uVel_max               =   2.4750000000000E-01
(PID.TID 0000.0001) %MON obc_E_uVel_min               =   2.4750000000000E-01
(PID.TID 0000.0001) %MON obc_E_uVel_mean              =   2.4750000000000E-01
(PID.TID 0000.0001) %MON obc_E_uVel_sd                =   6.9693799815587E-09
(PID.TID 0000.0001) %MON obc_E_uVel_Int               =   2.2274999999999E+08
(PID.TID 0000.0001) %MON obc_W_uVel_max               =   2.5250000000000E-01
(PID.TID 0000.0001) %MON obc_W_uVel_min               =   2.5250000000000E-01
(PID.TID 0000.0001) %MON obc_W_uVel_mean              =   2.5250000000000E-01
(PID.TID 0000.0001) %MON obc_W_uVel_sd                =   6.4523920698795E-09
(PID.TID 0000.0001) %MON obc_W_uVel_Int               =   2.2724999999999E+08
(PID.TID 0000.0001) %MON obc_N_vVel_max               =   0.0000000000000E+00
(PID.TID 0000.0001) %MON obc_N_vVel_min               =   0.0000000000000E+00
(PID.TID 0000.0001) %MON obc_N_vVel_mean              =   0.0000000000000E+00
(PID.TID 0000.0001) %MON obc_N_vVel_sd                =   0.0000000000000E+00
(PID.TID 0000.0001) %MON obc_N_vVel_Int               =   0.0000000000000E+00
(PID.TID 0000.0001) %MON obc_S_vVel_max               =   0.0000000000000E+00
(PID.TID 0000.0001) %MON obc_S_vVel_min               =   0.0000000000000E+00
(PID.TID 0000.0001) %MON obc_S_vVel_mean              =   0.0000000000000E+00
(PID.TID 0000.0001) %MON obc_S_vVel_sd                =   0.0000000000000E+00
(PID.TID 0000.0001) %MON obc_S_vVel_Int               =   0.0000000000000E+00
(PID.TID 0000.0001) %MON obc_E_theta_max              =   6.9683400000000E-01
(PID.TID 0000.0001) %MON obc_E_theta_min              =  -6.9683400000000E-01
(PID.TID 0000.0001) %MON obc_E_theta_mean             =   2.6226043701173E-14
(PID.TID 0000.0001) %MON obc_E_theta_sd               =   4.5618475594441E-01
(PID.TID 0000.0001) %MON obc_W_theta_max              =   6.9683400000000E-01
(PID.TID 0000.0001) %MON obc_W_theta_min              =  -6.9683400000000E-01
(PID.TID 0000.0001) %MON obc_W_theta_mean             =   2.6226043701173E-14
(PID.TID 0000.0001) %MON obc_W_theta_sd               =   4.5618475594441E-01
(PID.TID 0000.0001) %MON obc_N_theta_max              =   6.9683400000000E-01
(PID.TID 0000.0001) %MON obc_N_theta_min              =  -6.9683400000000E-01
(PID.TID 0000.0001) %MON obc_N_theta_mean             =   5.0183265503355E-05
(PID.TID 0000.0001) %MON obc_N_theta_sd               =   4.5616285086401E-01
(PID.TID 0000.0001) %MON obc_S_theta_max              =   6.9683400000000E-01
(PID.TID 0000.0001) %MON obc_S_theta_min              =  -6.9683400000000E-01
(PID.TID 0000.0001) %MON obc_S_theta_mean             =   5.0183265503355E-05
(PID.TID 0000.0001) %MON obc_S_theta_sd               =   4.5616285086401E-01
(PID.TID 0000.0001) // =======================================================
(PID.TID 0000.0001) // End OBCS MONITOR field statistics
(PID.TID 0000.0001) // =======================================================
(PID.TID 0000.0001) // =======================================================
(PID.TID 0000.0001) // Begin MONITOR ptracer field statistics
(PID.TID 0000.0001) // =======================================================
(PID.TID 0000.0001) %MON trcstat_ptracer01_max        =   3.5000000000000E+01
(PID.TID 0000.0001) %MON trcstat_ptracer01_min        =   3.5000000000000E+01
(PID.TID 0000.0001) %MON trcstat_ptracer01_mean       =   3.5000000000000E+01
(PID.TID 0000.0001) %MON trcstat_ptracer01_sd         =   1.1368683772162E-13
(PID.TID 0000.0001) %MON trcstat_ptracer01_del2       =   7.4287972674412E-04
(PID.TID 0000.0001) // =======================================================
(PID.TID 0000.0001) // End MONITOR ptracers field statistics
(PID.TID 0000.0001) // =======================================================
 EXTERNAL_FIELDS_LOAD,         0 : iP,iLd,i0,i1=    2    0    1    2 ; Wght=  1.0000000000  0.0000000000
 EXTERNAL_FIELDS_LOAD, it=         0 : Reading new data, i0,i1=    1    2 (prev=    2    0 )
 RBCS_FIELDS_LOAD, it=         0 : Reading new data, i0,i1=    1    1 (prev=    1    0 )
(PID.TID 0000.0001)  MDS_READ_FIELD: opening global file: rbcs_Tr1_fld.bin
(PID.TID 0000.0001)  MDS_READ_FIELD: opening global file: rbcs_Tr1_fld.bin
 OBCS_FIELDS_LOAD,         1 : iP,iLd,i0,i1=    1    2    1    2 ; Wght=  0.9722222222  0.0277777778
(PID.TID 0000.0001) SOLVE_FOR_PRESSURE: putPmEinXvector =    F
(PID.TID 0000.0001) SOLVE_FOR_PRESSURE: zeroPsNH=    F , zeroMeanPnh=    F
(PID.TID 0000.0001) SOLVE_FOR_PRESSURE: oldFreeSurfTerm =    F
 cg2d: Sum(rhs),rhsMax =  -7.70274463059248E-01  2.04833193029835E+00
(PID.TID 0000.0001)      cg2d_init_res =   8.86719606558989E+00
(PID.TID 0000.0001)      cg2d_iters(min,last) =      -1     196
(PID.TID 0000.0001)      cg2d_last_res =   8.33673854057829E-14
(PID.TID 0000.0001) // =======================================================
(PID.TID 0000.0001) // Begin MONITOR dynamic field statistics
(PID.TID 0000.0001) // =======================================================
(PID.TID 0000.0001) %MON time_tsnumber                =                     1
(PID.TID 0000.0001) %MON time_secondsf                =   1.1400000000000E+04
(PID.TID 0000.0001) %MON dynstat_eta_max              =   4.9258889856464E+00
(PID.TID 0000.0001) %MON dynstat_eta_min              =  -4.8196643818876E+00
(PID.TID 0000.0001) %MON dynstat_eta_mean             =   3.2769230769231E-02
(PID.TID 0000.0001) %MON dynstat_eta_sd               =   2.5556250698977E+00
(PID.TID 0000.0001) %MON dynstat_eta_del2             =   9.1008780938668E-05
(PID.TID 0000.0001) %MON dynstat_uvel_max             =   2.5236111111111E-01
(PID.TID 0000.0001) %MON dynstat_uvel_min             =   9.2158884132174E-02
(PID.TID 0000.0001) %MON dynstat_uvel_mean            =   1.5245795159227E-01
(PID.TID 0000.0001) %MON dynstat_uvel_sd              =   4.2442834836951E-02
(PID.TID 0000.0001) %MON dynstat_uvel_del2            =   1.4066545760346E-04
(PID.TID 0000.0001) %MON dynstat_vvel_max             =   3.2054318877616E-02
(PID.TID 0000.0001) %MON dynstat_vvel_min             =  -3.1923107392989E-02
(PID.TID 0000.0001) %MON dynstat_vvel_mean            =  -3.3723509589542E-05
(PID.TID 0000.0001) %MON dynstat_vvel_sd              =   6.9508874839613E-03
(PID.TID 0000.0001) %MON dynstat_vvel_del2            =   1.7036842200098E-05
(PID.TID 0000.0001) %MON dynstat_wvel_max             =   8.7241679265592E-03
(PID.TID 0000.0001) %MON dynstat_wvel_min             =  -8.6585863636286E-03
(PID.TID 0000.0001) %MON dynstat_wvel_mean            =   9.3276630319441E-07
(PID.TID 0000.0001) %MON dynstat_wvel_sd              =   8.0525630100894E-04
(PID.TID 0000.0001) %MON dynstat_wvel_del2            =   2.3872939637076E-06
(PID.TID 0000.0001) %MON dynstat_theta_max            =   6.9746124369692E-01
(PID.TID 0000.0001) %MON dynstat_theta_min            =  -6.9810130243834E-01
(PID.TID 0000.0001) %MON dynstat_theta_mean           =   2.0289878355808E-02
(PID.TID 0000.0001) %MON dynstat_theta_sd             =   4.5211963123707E-01
(PID.TID 0000.0001) %MON dynstat_theta_del2           =   7.3482015553330E-07
(PID.TID 0000.0001) %MON dynstat_salt_max             =   3.5041598185267E+01
(PID.TID 0000.0001) %MON dynstat_salt_min             =   3.4997501439823E+01
(PID.TID 0000.0001) %MON dynstat_salt_mean            =   3.5000525107726E+01
(PID.TID 0000.0001) %MON dynstat_salt_sd              =   4.7923291147548E-03
(PID.TID 0000.0001) %MON dynstat_salt_del2            =   6.8028258388046E-04
(PID.TID 0000.0001) %MON advcfl_uvel_max              =   3.0283333333333E-02
(PID.TID 0000.0001) %MON advcfl_vvel_max              =   3.8465182653139E-03
(PID.TID 0000.0001) %MON advcfl_wvel_max              =   9.3057791216632E-03
(PID.TID 0000.0001) %MON advcfl_W_hf_max              =   1.9535989464157E-02
(PID.TID 0000.0001) %MON pe_b_mean                    =   7.4586819336240E-03
(PID.TID 0000.0001) %MON ke_max                       =   3.1573500633725E-02
(PID.TID 0000.0001) %MON ke_mean                      =   1.2248335021600E-02
(PID.TID 0000.0001) %MON ke_vol                       =   3.3507127984312E+14
(PID.TID 0000.0001) %MON vort_r_min                   =  -4.5863803997398E-05
(PID.TID 0000.0001) %MON vort_r_max                   =   4.5825338625427E-05
(PID.TID 0000.0001) %MON vort_a_mean                  =   1.0000000000000E-04
(PID.TID 0000.0001) %MON vort_a_sd                    =   5.0987691655327E-06
(PID.TID 0000.0001) %MON vort_p_mean                  =   1.0161982423688E-04
(PID.TID 0000.0001) %MON vort_p_sd                    =   3.0227080479843E-05
(PID.TID 0000.0001) %MON surfExpan_theta_mean         =   1.2562513369141E-06
(PID.TID 0000.0001) %MON surfExpan_salt_mean          =   1.9156601798850E-03
(PID.TID 0000.0001) // =======================================================
(PID.TID 0000.0001) // End MONITOR dynamic field statistics
(PID.TID 0000.0001) // =======================================================
(PID.TID 0000.0001) // =======================================================
(PID.TID 0000.0001) // Begin MONITOR ptracer field statistics
(PID.TID 0000.0001) // =======================================================
(PID.TID 0000.0001) %MON trcstat_ptracer01_max        =   3.5041598185267E+01
(PID.TID 0000.0001) %MON trcstat_ptracer01_min        =   3.4997501439823E+01
(PID.TID 0000.0001) %MON trcstat_ptracer01_mean       =   3.5000720271610E+01
(PID.TID 0000.0001) %MON trcstat_ptracer01_sd         =   4.8633912330968E-03
(PID.TID 0000.0001) %MON trcstat_ptracer01_del2       =   6.8033124274431E-04
(PID.TID 0000.0001) // =======================================================
(PID.TID 0000.0001) // End MONITOR ptracers field statistics
(PID.TID 0000.0001) // =======================================================
 EXTERNAL_FIELDS_LOAD,         1 : iP,iLd,i0,i1=    1    2    1    2 ; Wght=  0.9722222222  0.0277777778
 OBCS_FIELDS_LOAD,         2 : iP,iLd,i0,i1=    1    2    1    2 ; Wght=  0.9444444444  0.0555555556
 cg2d: Sum(rhs),rhsMax =  -9.03869406202949E+00  3.38849526339465E-01
(PID.TID 0000.0001)      cg2d_init_res =   5.12016024756844E+01
(PID.TID 0000.0001)      cg2d_iters(min,last) =      -1     204
(PID.TID 0000.0001)      cg2d_last_res =   8.20833180353287E-14
(PID.TID 0000.0001) // =======================================================
(PID.TID 0000.0001) // Begin MONITOR dynamic field statistics
(PID.TID 0000.0001) // =======================================================
(PID.TID 0000.0001) %MON time_tsnumber                =                     2
(PID.TID 0000.0001) %MON time_secondsf                =   1.2000000000000E+04
(PID.TID 0000.0001) %MON dynstat_eta_max              =   4.0847617294706E+00
(PID.TID 0000.0001) %MON dynstat_eta_min              =  -3.9520383298927E+00
(PID.TID 0000.0001) %MON dynstat_eta_mean             =   6.3611111111110E-02
(PID.TID 0000.0001) %MON dynstat_eta_sd               =   2.6236908664763E+00
(PID.TID 0000.0001) %MON dynstat_eta_del2             =   1.3073030345955E-04
(PID.TID 0000.0001) %MON dynstat_uvel_max             =   5.7285824790126E-01
(PID.TID 0000.0001) %MON dynstat_uvel_min             =   2.0903245086014E-01
(PID.TID 0000.0001) %MON dynstat_uvel_mean            =   2.6033556201172E-01
(PID.TID 0000.0001) %MON dynstat_uvel_sd              =   2.5262737550993E-02
(PID.TID 0000.0001) %MON dynstat_uvel_del2            =   5.3281126114821E-05
(PID.TID 0000.0001) %MON dynstat_vvel_max             =   8.4628529505930E-02
(PID.TID 0000.0001) %MON dynstat_vvel_min             =  -9.2662064759738E-02
(PID.TID 0000.0001) %MON dynstat_vvel_mean            =  -2.3633925970395E-03
(PID.TID 0000.0001) %MON dynstat_vvel_sd              =   1.7991606687852E-02
(PID.TID 0000.0001) %MON dynstat_vvel_del2            =   1.9969966476272E-05
(PID.TID 0000.0001) %MON dynstat_wvel_max             =   2.0823053538189E-02
(PID.TID 0000.0001) %MON dynstat_wvel_min             =  -2.0663038127267E-02
(PID.TID 0000.0001) %MON dynstat_wvel_mean            =   1.5623961007873E-06
(PID.TID 0000.0001) %MON dynstat_wvel_sd              =   1.9163259238740E-03
(PID.TID 0000.0001) %MON dynstat_wvel_del2            =   5.6739825838667E-06
(PID.TID 0000.0001) %MON dynstat_theta_max            =   6.9901616891491E-01
(PID.TID 0000.0001) %MON dynstat_theta_min            =  -7.0114887324658E-01
(PID.TID 0000.0001) %MON dynstat_theta_mean           =   2.0289604157033E-02
(PID.TID 0000.0001) %MON dynstat_theta_sd             =   4.5211975440739E-01
(PID.TID 0000.0001) %MON dynstat_theta_del2           =   2.4339080940301E-06
(PID.TID 0000.0001) %MON dynstat_salt_max             =   3.5081208451588E+01
(PID.TID 0000.0001) %MON dynstat_salt_min             =   3.4997469019821E+01
(PID.TID 0000.0001) %MON dynstat_salt_mean            =   3.5001053372132E+01
(PID.TID 0000.0001) %MON dynstat_salt_sd              =   9.3547537342995E-03
(PID.TID 0000.0001) %MON dynstat_salt_del2            =   6.2386274704632E-04
(PID.TID 0000.0001) %MON advcfl_uvel_max              =   6.8742989748151E-02
(PID.TID 0000.0001) %MON advcfl_vvel_max              =   1.1119447771169E-02
(PID.TID 0000.0001) %MON advcfl_wvel_max              =   2.2211257107402E-02
(PID.TID 0000.0001) %MON advcfl_W_hf_max              =   5.0263775661365E-02
(PID.TID 0000.0001) %MON pe_b_mean                    =   7.8645455784739E-03
(PID.TID 0000.0001) %MON ke_max                       =   1.5993394894081E-01
(PID.TID 0000.0001) %MON ke_mean                      =   3.4285399913516E-02
(PID.TID 0000.0001) %MON ke_vol                       =   3.3507383584313E+14
(PID.TID 0000.0001) %MON vort_r_min                   =  -1.2104056625847E-04
(PID.TID 0000.0001) %MON vort_r_max                   =   1.2042877859996E-04
(PID.TID 0000.0001) %MON vort_a_mean                  =   1.0000000000000E-04
(PID.TID 0000.0001) %MON vort_a_sd                    =   6.2225273237872E-06
(PID.TID 0000.0001) %MON vort_p_mean                  =   1.0161912081620E-04
(PID.TID 0000.0001) %MON vort_p_sd                    =   3.4206885102129E-05
(PID.TID 0000.0001) %MON surfExpan_theta_mean         =   2.1112943994176E-06
(PID.TID 0000.0001) %MON surfExpan_salt_mean          =   1.7972875485885E-03
(PID.TID 0000.0001) // =======================================================
(PID.TID 0000.0001) // End MONITOR dynamic field statistics
(PID.TID 0000.0001) // =======================================================
(PID.TID 0000.0001) // =======================================================
(PID.TID 0000.0001) // Begin OBCS MONITOR field statistics
(PID.TID 0000.0001) // =======================================================
(PID.TID 0000.0001) %MON obc_time_tsnumber            =                     2
(PID.TID 0000.0001) %MON obc_time_secondsf            =   1.2000000000000E+04
(PID.TID 0000.0001) %MON obc_E_uVel_max               =   2.4777777777778E-01
(PID.TID 0000.0001) %MON obc_E_uVel_min               =   2.4777777777778E-01
(PID.TID 0000.0001) %MON obc_E_uVel_mean              =   2.4777777777778E-01
(PID.TID 0000.0001) %MON obc_E_uVel_sd                =   1.1482115840482E-08
(PID.TID 0000.0001) %MON obc_E_uVel_Int               =   2.2299531975308E+08
(PID.TID 0000.0001) %MON obc_W_uVel_max               =   2.5222222222222E-01
(PID.TID 0000.0001) %MON obc_W_uVel_min               =   2.5222222222222E-01
(PID.TID 0000.0001) %MON obc_W_uVel_mean              =   2.5222222222222E-01
(PID.TID 0000.0001) %MON obc_W_uVel_sd                =   1.0536712127724E-08
(PID.TID 0000.0001) %MON obc_W_uVel_Int               =   2.2700476419752E+08
(PID.TID 0000.0001) %MON obc_N_vVel_max               =   0.0000000000000E+00
(PID.TID 0000.0001) %MON obc_N_vVel_min               =   0.0000000000000E+00
(PID.TID 0000.0001) %MON obc_N_vVel_mean              =   0.0000000000000E+00
(PID.TID 0000.0001) %MON obc_N_vVel_sd                =   0.0000000000000E+00
(PID.TID 0000.0001) %MON obc_N_vVel_Int               =   0.0000000000000E+00
(PID.TID 0000.0001) %MON obc_S_vVel_max               =   0.0000000000000E+00
(PID.TID 0000.0001) %MON obc_S_vVel_min               =   0.0000000000000E+00
(PID.TID 0000.0001) %MON obc_S_vVel_mean              =   0.0000000000000E+00
(PID.TID 0000.0001) %MON obc_S_vVel_sd                =   0.0000000000000E+00
(PID.TID 0000.0001) %MON obc_S_vVel_Int               =   0.0000000000000E+00
(PID.TID 0000.0001) %MON obc_E_theta_max              =   6.9683400000000E-01
(PID.TID 0000.0001) %MON obc_E_theta_min              =  -6.9683400000000E-01
(PID.TID 0000.0001) %MON obc_E_theta_mean             =   2.6224265780561E-14
(PID.TID 0000.0001) %MON obc_E_theta_sd               =   4.5618475594441E-01
(PID.TID 0000.0001) %MON obc_W_theta_max              =   6.9683400000000E-01
(PID.TID 0000.0001) %MON obc_W_theta_min              =  -6.9683400000000E-01
(PID.TID 0000.0001) %MON obc_W_theta_mean             =   2.6250328037019E-14
(PID.TID 0000.0001) %MON obc_W_theta_sd               =   4.5618475594441E-01
(PID.TID 0000.0001) %MON obc_N_theta_max              =   6.9683400000000E-01
(PID.TID 0000.0001) %MON obc_N_theta_min              =  -6.9683400000000E-01
(PID.TID 0000.0001) %MON obc_N_theta_mean             =   5.0183265503355E-05
(PID.TID 0000.0001) %MON obc_N_theta_sd               =   4.5616285086401E-01
(PID.TID 0000.0001) %MON obc_S_theta_max              =   6.9683400000000E-01
(PID.TID 0000.0001) %MON obc_S_theta_min              =  -6.9683400000000E-01
(PID.TID 0000.0001) %MON obc_S_theta_mean             =   5.0183265503355E-05
(PID.TID 0000.0001) %MON obc_S_theta_sd               =   4.5616285086401E-01
(PID.TID 0000.0001) // =======================================================
(PID.TID 0000.0001) // End OBCS MONITOR field statistics
(PID.TID 0000.0001) // =======================================================
(PID.TID 0000.0001) // =======================================================
(PID.TID 0000.0001) // Begin MONITOR ptracer field statistics
(PID.TID 0000.0001) // =======================================================
(PID.TID 0000.0001) %MON trcstat_ptracer01_max        =   3.5081208451588E+01
(PID.TID 0000.0001) %MON trcstat_ptracer01_min        =   3.4997469019821E+01
(PID.TID 0000.0001) %MON trcstat_ptracer01_mean       =   3.5001436162055E+01
(PID.TID 0000.0001) %MON trcstat_ptracer01_sd         =   9.4937597791817E-03
(PID.TID 0000.0001) %MON trcstat_ptracer01_del2       =   6.2384626376487E-04
(PID.TID 0000.0001) // =======================================================
(PID.TID 0000.0001) // End MONITOR ptracers field statistics
(PID.TID 0000.0001) // =======================================================
 EXTERNAL_FIELDS_LOAD,         2 : iP,iLd,i0,i1=    1    2    1    2 ; Wght=  0.9444444444  0.0555555556
 OBCS_FIELDS_LOAD,         3 : iP,iLd,i0,i1=    1    2    1    2 ; Wght=  0.9166666667  0.0833333333
 cg2d: Sum(rhs),rhsMax =  -1.95425914372680E+01  2.27960467060118E-01
(PID.TID 0000.0001)      cg2d_init_res =   1.08790032231785E+01
(PID.TID 0000.0001)      cg2d_iters(min,last) =      -1     200
(PID.TID 0000.0001)      cg2d_last_res =   9.67470210262875E-14
(PID.TID 0000.0001) // =======================================================
(PID.TID 0000.0001) // Begin MONITOR dynamic field statistics
(PID.TID 0000.0001) // =======================================================
(PID.TID 0000.0001) %MON time_tsnumber                =                     3
(PID.TID 0000.0001) %MON time_secondsf                =   1.2600000000000E+04
(PID.TID 0000.0001) %MON dynstat_eta_max              =   2.3305091623450E+00
(PID.TID 0000.0001) %MON dynstat_eta_min              =  -2.1460213707609E+00
(PID.TID 0000.0001) %MON dynstat_eta_mean             =   9.2525641025636E-02
(PID.TID 0000.0001) %MON dynstat_eta_sd               =   1.4585587997614E+00
(PID.TID 0000.0001) %MON dynstat_eta_del2             =   8.6561846554105E-05
(PID.TID 0000.0001) %MON dynstat_uvel_max             =   7.9705425849517E-01
(PID.TID 0000.0001) %MON dynstat_uvel_min             =   2.4791666666667E-01
(PID.TID 0000.0001) %MON dynstat_uvel_mean            =   3.1378852141961E-01
(PID.TID 0000.0001) %MON dynstat_uvel_sd              =   5.5154851987924E-02
(PID.TID 0000.0001) %MON dynstat_uvel_del2            =   1.4604002728039E-04
(PID.TID 0000.0001) %MON dynstat_vvel_max             =   1.2661176184214E-01
(PID.TID 0000.0001) %MON dynstat_vvel_min             =  -1.4897215093212E-01
(PID.TID 0000.0001) %MON dynstat_vvel_mean            =  -1.8367927328112E-03
(PID.TID 0000.0001) %MON dynstat_vvel_sd              =   2.5246483188356E-02
(PID.TID 0000.0001) %MON dynstat_vvel_del2            =   2.3257983542446E-05
(PID.TID 0000.0001) %MON dynstat_wvel_max             =   2.8195308277274E-02
(PID.TID 0000.0001) %MON dynstat_wvel_min             =  -2.7686456910698E-02
(PID.TID 0000.0001) %MON dynstat_wvel_mean            =   1.2647180330644E-06
(PID.TID 0000.0001) %MON dynstat_wvel_sd              =   2.5784011837339E-03
(PID.TID 0000.0001) %MON dynstat_wvel_del2            =   7.4830729935024E-06
(PID.TID 0000.0001) %MON dynstat_theta_max            =   7.0108910828443E-01
(PID.TID 0000.0001) %MON dynstat_theta_min            =  -7.0521558481713E-01
(PID.TID 0000.0001) %MON dynstat_theta_mean           =   2.0289458175371E-02
(PID.TID 0000.0001) %MON dynstat_theta_sd             =   4.5211980904267E-01
(PID.TID 0000.0001) %MON dynstat_theta_del2           =   4.5650300339618E-06
(PID.TID 0000.0001) %MON dynstat_salt_max             =   3.5118974698997E+01
(PID.TID 0000.0001) %MON dynstat_salt_min             =   3.4999143456364E+01
(PID.TID 0000.0001) %MON dynstat_salt_mean            =   3.5001576744533E+01
(PID.TID 0000.0001) %MON dynstat_salt_sd              =   1.3685552970545E-02
(PID.TID 0000.0001) %MON dynstat_salt_del2            =   5.7299492371232E-04
(PID.TID 0000.0001) %MON advcfl_uvel_max              =   9.5646511019420E-02
(PID.TID 0000.0001) %MON advcfl_vvel_max              =   1.7876658111855E-02
(PID.TID 0000.0001) %MON advcfl_wvel_max              =   3.0074995495759E-02
(PID.TID 0000.0001) %MON advcfl_W_hf_max              =   7.1171957220728E-02
(PID.TID 0000.0001) %MON pe_b_mean                    =   2.4388328174943E-03
(PID.TID 0000.0001) %MON ke_max                       =   3.1163312714084E-01
(PID.TID 0000.0001) %MON ke_mean                      =   5.1150682075989E-02
(PID.TID 0000.0001) %MON ke_vol                       =   3.3507624150979E+14
(PID.TID 0000.0001) %MON vort_r_min                   =  -1.7685239609169E-04
(PID.TID 0000.0001) %MON vort_r_max                   =   1.7211732175263E-04
(PID.TID 0000.0001) %MON vort_a_mean                  =   1.0000000000000E-04
(PID.TID 0000.0001) %MON vort_a_sd                    =   9.3711745618090E-06
(PID.TID 0000.0001) %MON vort_p_mean                  =   1.0161845337916E-04
(PID.TID 0000.0001) %MON vort_p_sd                    =   3.8551017792729E-05
(PID.TID 0000.0001) %MON surfExpan_theta_mean         =   2.1135411446135E-06
(PID.TID 0000.0001) %MON surfExpan_salt_mean          =   1.6821131051165E-03
(PID.TID 0000.0001) // =======================================================
(PID.TID 0000.0001) // End MONITOR dynamic field statistics
(PID.TID 0000.0001) // =======================================================
(PID.TID 0000.0001) // =======================================================
(PID.TID 0000.0001) // Begin MONITOR ptracer field statistics
(PID.TID 0000.0001) // =======================================================
(PID.TID 0000.0001) %MON trcstat_ptracer01_max        =   3.5118974698997E+01
(PID.TID 0000.0001) %MON trcstat_ptracer01_min        =   3.4999083603130E+01
(PID.TID 0000.0001) %MON trcstat_ptracer01_mean       =   3.5002142532635E+01
(PID.TID 0000.0001) %MON trcstat_ptracer01_sd         =   1.3895705012796E-02
(PID.TID 0000.0001) %MON trcstat_ptracer01_del2       =   5.7279337624472E-04
(PID.TID 0000.0001) // =======================================================
(PID.TID 0000.0001) // End MONITOR ptracers field statistics
(PID.TID 0000.0001) // =======================================================
 EXTERNAL_FIELDS_LOAD,         3 : iP,iLd,i0,i1=    1    2    1    2 ; Wght=  0.9166666667  0.0833333333
 OBCS_FIELDS_LOAD,         4 : iP,iLd,i0,i1=    1    2    1    2 ; Wght=  0.8888888889  0.1111111111
 cg2d: Sum(rhs),rhsMax =  -2.25974464468701E+01  2.54644744979629E-01
(PID.TID 0000.0001)      cg2d_init_res =   8.47175396688882E+00
(PID.TID 0000.0001)      cg2d_iters(min,last) =      -1     198
(PID.TID 0000.0001)      cg2d_last_res =   9.33934911738753E-14
(PID.TID 0000.0001) // =======================================================
(PID.TID 0000.0001) // Begin MONITOR dynamic field statistics
(PID.TID 0000.0001) // =======================================================
(PID.TID 0000.0001) %MON time_tsnumber                =                     4
(PID.TID 0000.0001) %MON time_secondsf                =   1.3200000000000E+04
(PID.TID 0000.0001) %MON dynstat_eta_max              =   6.5011796628005E-01
(PID.TID 0000.0001) %MON dynstat_eta_min              =  -4.1012870772289E-01
(PID.TID 0000.0001) %MON dynstat_eta_mean             =   1.1951282051282E-01
(PID.TID 0000.0001) %MON dynstat_eta_sd               =   2.6182267048256E-01
(PID.TID 0000.0001) %MON dynstat_eta_del2             =   2.2176384794975E-05
(PID.TID 0000.0001) %MON dynstat_uvel_max             =   8.2013148037808E-01
(PID.TID 0000.0001) %MON dynstat_uvel_min             =   2.4805555555556E-01
(PID.TID 0000.0001) %MON dynstat_uvel_mean            =   3.1811795386909E-01
(PID.TID 0000.0001) %MON dynstat_uvel_sd              =   5.9949423090094E-02
(PID.TID 0000.0001) %MON dynstat_uvel_del2            =   1.4941900131837E-04
(PID.TID 0000.0001) %MON dynstat_vvel_max             =   1.4394652068319E-01
(PID.TID 0000.0001) %MON dynstat_vvel_min             =  -1.8996072782054E-01
(PID.TID 0000.0001) %MON dynstat_vvel_mean            =  -4.9750144890179E-04
(PID.TID 0000.0001) %MON dynstat_vvel_sd              =   2.6653079068952E-02
(PID.TID 0000.0001) %MON dynstat_vvel_del2            =   2.6960509356760E-05
(PID.TID 0000.0001) %MON dynstat_wvel_max             =   2.9118059804053E-02
(PID.TID 0000.0001) %MON dynstat_wvel_min             =  -2.7955712189437E-02
(PID.TID 0000.0001) %MON dynstat_wvel_mean            =   8.9416732840318E-07
(PID.TID 0000.0001) %MON dynstat_wvel_sd              =   2.6330823128404E-03
(PID.TID 0000.0001) %MON dynstat_wvel_del2            =   7.4112678431568E-06
(PID.TID 0000.0001) %MON dynstat_theta_max            =   7.0309713744704E-01
(PID.TID 0000.0001) %MON dynstat_theta_min            =  -7.0924314221093E-01
(PID.TID 0000.0001) %MON dynstat_theta_mean           =   2.0289344537449E-02
(PID.TID 0000.0001) %MON dynstat_theta_sd             =   4.5211976142980E-01
(PID.TID 0000.0001) %MON dynstat_theta_del2           =   6.4875178277087E-06
(PID.TID 0000.0001) %MON dynstat_salt_max             =   3.5154915017884E+01
(PID.TID 0000.0001) %MON dynstat_salt_min             =   3.4998967586625E+01
(PID.TID 0000.0001) %MON dynstat_salt_mean            =   3.5002095576563E+01
(PID.TID 0000.0001) %MON dynstat_salt_sd              =   1.7803558453310E-02
(PID.TID 0000.0001) %MON dynstat_salt_del2            =   5.2721485026092E-04
(PID.TID 0000.0001) %MON advcfl_uvel_max              =   9.8415777645369E-02
(PID.TID 0000.0001) %MON advcfl_vvel_max              =   2.2795287338465E-02
(PID.TID 0000.0001) %MON advcfl_wvel_max              =   3.1059263790990E-02
(PID.TID 0000.0001) %MON advcfl_W_hf_max              =   7.5144936805084E-02
(PID.TID 0000.0001) %MON pe_b_mean                    =   9.4579696926994E-05
(PID.TID 0000.0001) %MON ke_max                       =   3.3370012065866E-01
(PID.TID 0000.0001) %MON ke_mean                      =   5.2846114560342E-02
(PID.TID 0000.0001) %MON ke_vol                       =   3.3507849684313E+14
(PID.TID 0000.0001) %MON vort_r_min                   =  -1.9472409575398E-04
(PID.TID 0000.0001) %MON vort_r_max                   =   1.8320601793333E-04
(PID.TID 0000.0001) %MON vort_a_mean                  =   1.0000000000000E-04
(PID.TID 0000.0001) %MON vort_a_sd                    =   9.7608121265046E-06
(PID.TID 0000.0001) %MON vort_p_mean                  =   1.0161782969770E-04
(PID.TID 0000.0001) %MON vort_p_sd                    =   3.9190748539777E-05
(PID.TID 0000.0001) %MON surfExpan_theta_mean         =   1.9493839548462E-06
(PID.TID 0000.0001) %MON surfExpan_salt_mean          =   1.5685056814290E-03
(PID.TID 0000.0001) // =======================================================
(PID.TID 0000.0001) // End MONITOR dynamic field statistics
(PID.TID 0000.0001) // =======================================================
(PID.TID 0000.0001) // =======================================================
(PID.TID 0000.0001) // Begin OBCS MONITOR field statistics
(PID.TID 0000.0001) // =======================================================
(PID.TID 0000.0001) %MON obc_time_tsnumber            =                     4
(PID.TID 0000.0001) %MON obc_time_secondsf            =   1.3200000000000E+04
(PID.TID 0000.0001) %MON obc_E_uVel_max               =   2.4805555555556E-01
(PID.TID 0000.0001) %MON obc_E_uVel_min               =   2.4805555555556E-01
(PID.TID 0000.0001) %MON obc_E_uVel_mean              =   2.4805555555556E-01
(PID.TID 0000.0001) %MON obc_E_uVel_sd                =  -2.0122792321331E-16
(PID.TID 0000.0001) %MON obc_E_uVel_Int               =   2.2324586574073E+08
(PID.TID 0000.0001) %MON obc_W_uVel_max               =   2.5194444444444E-01
(PID.TID 0000.0001) %MON obc_W_uVel_min               =   2.5194444444444E-01
(PID.TID 0000.0001) %MON obc_W_uVel_mean              =   2.5194444444444E-01
(PID.TID 0000.0001) %MON obc_W_uVel_sd                =   1.5805068191585E-08
(PID.TID 0000.0001) %MON obc_W_uVel_Int               =   2.2675419907406E+08
(PID.TID 0000.0001) %MON obc_N_vVel_max               =   0.0000000000000E+00
(PID.TID 0000.0001) %MON obc_N_vVel_min               =   0.0000000000000E+00
(PID.TID 0000.0001) %MON obc_N_vVel_mean              =   0.0000000000000E+00
(PID.TID 0000.0001) %MON obc_N_vVel_sd                =   0.0000000000000E+00
(PID.TID 0000.0001) %MON obc_N_vVel_Int               =   0.0000000000000E+00
(PID.TID 0000.0001) %MON obc_S_vVel_max               =   0.0000000000000E+00
(PID.TID 0000.0001) %MON obc_S_vVel_min               =   0.0000000000000E+00
(PID.TID 0000.0001) %MON obc_S_vVel_mean              =   0.0000000000000E+00
(PID.TID 0000.0001) %MON obc_S_vVel_sd                =   0.0000000000000E+00
(PID.TID 0000.0001) %MON obc_S_vVel_Int               =   0.0000000000000E+00
(PID.TID 0000.0001) %MON obc_E_theta_max              =   6.9683400000000E-01
(PID.TID 0000.0001) %MON obc_E_theta_min              =  -6.9683400000000E-01
(PID.TID 0000.0001) %MON obc_E_theta_mean             =   2.6223424911571E-14
(PID.TID 0000.0001) %MON obc_E_theta_sd               =   4.5618475594441E-01
(PID.TID 0000.0001) %MON obc_W_theta_max              =   6.9683400000000E-01
(PID.TID 0000.0001) %MON obc_W_theta_min              =  -6.9683400000000E-01
(PID.TID 0000.0001) %MON obc_W_theta_mean             =   2.6226075434540E-14
(PID.TID 0000.0001) %MON obc_W_theta_sd               =   4.5618475594441E-01
(PID.TID 0000.0001) %MON obc_N_theta_max              =   6.9683400000000E-01
(PID.TID 0000.0001) %MON obc_N_theta_min              =  -6.9683400000000E-01
(PID.TID 0000.0001) %MON obc_N_theta_mean             =   5.0183265503355E-05
(PID.TID 0000.0001) %MON obc_N_theta_sd               =   4.5616285086401E-01
(PID.TID 0000.0001) %MON obc_S_theta_max              =   6.9683400000000E-01
(PID.TID 0000.0001) %MON obc_S_theta_min              =  -6.9683400000000E-01
(PID.TID 0000.0001) %MON obc_S_theta_mean             =   5.0183265503355E-05
(PID.TID 0000.0001) %MON obc_S_theta_sd               =   4.5616285086401E-01
(PID.TID 0000.0001) // =======================================================
(PID.TID 0000.0001) // End OBCS MONITOR field statistics
(PID.TID 0000.0001) // =======================================================
(PID.TID 0000.0001) // =======================================================
(PID.TID 0000.0001) // Begin MONITOR ptracer field statistics
(PID.TID 0000.0001) // =======================================================
(PID.TID 0000.0001) %MON trcstat_ptracer01_max        =   3.5154915018076E+01
(PID.TID 0000.0001) %MON trcstat_ptracer01_min        =   3.4998967266722E+01
(PID.TID 0000.0001) %MON trcstat_ptracer01_mean       =   3.5002840808446E+01
(PID.TID 0000.0001) %MON trcstat_ptracer01_sd         =   1.8088450179797E-02
(PID.TID 0000.0001) %MON trcstat_ptracer01_del2       =   5.2673181046351E-04
(PID.TID 0000.0001) // =======================================================
(PID.TID 0000.0001) // End MONITOR ptracers field statistics
(PID.TID 0000.0001) // =======================================================
 EXTERNAL_FIELDS_LOAD,         4 : iP,iLd,i0,i1=    1    2    1    2 ; Wght=  0.8888888889  0.1111111111
 OBCS_FIELDS_LOAD,         5 : iP,iLd,i0,i1=    1    2    1    2 ; Wght=  0.8611111111  0.1388888889
 cg2d: Sum(rhs),rhsMax =  -3.05864267479920E+01  2.27581515393947E-01
(PID.TID 0000.0001)      cg2d_init_res =   5.51672409820752E+00
(PID.TID 0000.0001)      cg2d_iters(min,last) =      -1     195
(PID.TID 0000.0001)      cg2d_last_res =   9.74747948648954E-14
(PID.TID 0000.0001) // =======================================================
(PID.TID 0000.0001) // Begin MONITOR dynamic field statistics
(PID.TID 0000.0001) // =======================================================
(PID.TID 0000.0001) %MON time_tsnumber                =                     5
(PID.TID 0000.0001) %MON time_secondsf                =   1.3800000000000E+04
(PID.TID 0000.0001) %MON dynstat_eta_max              =   1.2712837686006E+00
(PID.TID 0000.0001) %MON dynstat_eta_min              =  -9.7807729059444E-01
(PID.TID 0000.0001) %MON dynstat_eta_mean             =   1.4457264957264E-01
(PID.TID 0000.0001) %MON dynstat_eta_sd               =   6.3468296225162E-01
(PID.TID 0000.0001) %MON dynstat_eta_del2             =   3.7743272333353E-05
(PID.TID 0000.0001) %MON dynstat_uvel_max             =   7.2890535747970E-01
(PID.TID 0000.0001) %MON dynstat_uvel_min             =   2.4221917237964E-01
(PID.TID 0000.0001) %MON dynstat_uvel_mean            =   2.9459116786843E-01
(PID.TID 0000.0001) %MON dynstat_uvel_sd              =   4.7211243931432E-02
(PID.TID 0000.0001) %MON dynstat_uvel_del2            =   1.0283721889328E-04
(PID.TID 0000.0001) %MON dynstat_vvel_max             =   1.4189255214760E-01
(PID.TID 0000.0001) %MON dynstat_vvel_min             =  -2.1036121192541E-01
(PID.TID 0000.0001) %MON dynstat_vvel_mean            =   4.2875805746823E-04
(PID.TID 0000.0001) %MON dynstat_vvel_sd              =   2.4616069000702E-02
(PID.TID 0000.0001) %MON dynstat_vvel_del2            =   3.0335980929877E-05
(PID.TID 0000.0001) %MON dynstat_wvel_max             =   2.5859833608379E-02
(PID.TID 0000.0001) %MON dynstat_wvel_min             =  -2.4309598998453E-02
(PID.TID 0000.0001) %MON dynstat_wvel_mean            =   9.6658979279671E-07
(PID.TID 0000.0001) %MON dynstat_wvel_sd              =   2.3353830041795E-03
(PID.TID 0000.0001) %MON dynstat_wvel_del2            =   6.4053195891623E-06
(PID.TID 0000.0001) %MON dynstat_theta_max            =   7.0472400424275E-01
(PID.TID 0000.0001) %MON dynstat_theta_min            =  -7.1259868949129E-01
(PID.TID 0000.0001) %MON dynstat_theta_mean           =   2.0289223670711E-02
(PID.TID 0000.0001) %MON dynstat_theta_sd             =   4.5211967026161E-01
(PID.TID 0000.0001) %MON dynstat_theta_del2           =   7.8879675001172E-06
(PID.TID 0000.0001) %MON dynstat_salt_max             =   3.5189100315768E+01
(PID.TID 0000.0001) %MON dynstat_salt_min             =   3.4998713961196E+01
(PID.TID 0000.0001) %MON dynstat_salt_mean            =   3.5002609817587E+01
(PID.TID 0000.0001) %MON dynstat_salt_sd              =   2.1723743477936E-02
(PID.TID 0000.0001) %MON dynstat_salt_del2            =   4.8611140635985E-04
(PID.TID 0000.0001) %MON advcfl_uvel_max              =   8.7468642897563E-02
(PID.TID 0000.0001) %MON advcfl_vvel_max              =   2.5243345431049E-02
(PID.TID 0000.0001) %MON advcfl_wvel_max              =   2.7583822515604E-02
(PID.TID 0000.0001) %MON advcfl_W_hf_max              =   6.7848058148243E-02
(PID.TID 0000.0001) %MON pe_b_mean                    =   4.8380137401479E-04
(PID.TID 0000.0001) %MON ke_max                       =   2.6402771313048E-01
(PID.TID 0000.0001) %MON ke_mean                      =   4.4826435497052E-02
(PID.TID 0000.0001) %MON ke_vol                       =   3.3508060184313E+14
(PID.TID 0000.0001) %MON vort_r_min                   =  -1.8674253867654E-04
(PID.TID 0000.0001) %MON vort_r_max                   =   1.6954622106275E-04
(PID.TID 0000.0001) %MON vort_a_mean                  =   1.0000000000000E-04
(PID.TID 0000.0001) %MON vort_a_sd                    =   8.4385226446051E-06
(PID.TID 0000.0001) %MON vort_p_mean                  =   1.0161724849009E-04
(PID.TID 0000.0001) %MON vort_p_sd                    =   3.7341855451495E-05
(PID.TID 0000.0001) %MON surfExpan_theta_mean         =   1.9021088407671E-06
(PID.TID 0000.0001) %MON surfExpan_salt_mean          =   1.4577697775593E-03
(PID.TID 0000.0001) // =======================================================
(PID.TID 0000.0001) // End MONITOR dynamic field statistics
(PID.TID 0000.0001) // =======================================================
(PID.TID 0000.0001) // =======================================================
(PID.TID 0000.0001) // Begin MONITOR ptracer field statistics
(PID.TID 0000.0001) // =======================================================
(PID.TID 0000.0001) %MON trcstat_ptracer01_max        =   3.5189100315776E+01
(PID.TID 0000.0001) %MON trcstat_ptracer01_min        =   3.4998713379207E+01
(PID.TID 0000.0001) %MON trcstat_ptracer01_mean       =   3.5003531078791E+01
(PID.TID 0000.0001) %MON trcstat_ptracer01_sd         =   2.2086319882797E-02
(PID.TID 0000.0001) %MON trcstat_ptracer01_del2       =   4.8526647954831E-04
(PID.TID 0000.0001) // =======================================================
(PID.TID 0000.0001) // End MONITOR ptracers field statistics
(PID.TID 0000.0001) // =======================================================
 EXTERNAL_FIELDS_LOAD,         5 : iP,iLd,i0,i1=    1    2    1    2 ; Wght=  0.8611111111  0.1388888889
 OBCS_FIELDS_LOAD,         6 : iP,iLd,i0,i1=    1    2    1    2 ; Wght=  0.8333333333  0.1666666667
 cg2d: Sum(rhs),rhsMax =  -4.48918948393952E+01  1.79869693335786E-01
(PID.TID 0000.0001)      cg2d_init_res =   2.19482904565184E+00
(PID.TID 0000.0001)      cg2d_iters(min,last) =      -1     196
(PID.TID 0000.0001)      cg2d_last_res =   7.77102961440036E-14
(PID.TID 0000.0001) // =======================================================
(PID.TID 0000.0001) // Begin MONITOR dynamic field statistics
(PID.TID 0000.0001) // =======================================================
(PID.TID 0000.0001) %MON time_tsnumber                =                     6
(PID.TID 0000.0001) %MON time_secondsf                =   1.4400000000000E+04
(PID.TID 0000.0001) %MON dynstat_eta_max              =   1.4039653384393E+00
(PID.TID 0000.0001) %MON dynstat_eta_min              =  -1.0682570697214E+00
(PID.TID 0000.0001) %MON dynstat_eta_mean             =   1.6770512820512E-01
(PID.TID 0000.0001) %MON dynstat_eta_sd               =   7.2724304354896E-01
(PID.TID 0000.0001) %MON dynstat_eta_del2             =   4.1863269431659E-05
(PID.TID 0000.0001) %MON dynstat_uvel_max             =   6.3349807145272E-01
(PID.TID 0000.0001) %MON dynstat_uvel_min             =   2.0389968849083E-01
(PID.TID 0000.0001) %MON dynstat_uvel_mean            =   2.6716791100654E-01
(PID.TID 0000.0001) %MON dynstat_uvel_sd              =   3.3392032653919E-02
(PID.TID 0000.0001) %MON dynstat_uvel_del2            =   5.5161200601179E-05
(PID.TID 0000.0001) %MON dynstat_vvel_max             =   1.3361831146174E-01
(PID.TID 0000.0001) %MON dynstat_vvel_min             =  -2.3035403275376E-01
(PID.TID 0000.0001) %MON dynstat_vvel_mean            =   6.9456268021894E-04
(PID.TID 0000.0001) %MON dynstat_vvel_sd              =   2.2269054682834E-02
(PID.TID 0000.0001) %MON dynstat_vvel_del2            =   3.2992720242513E-05
(PID.TID 0000.0001) %MON dynstat_wvel_max             =   2.1864147740681E-02
(PID.TID 0000.0001) %MON dynstat_wvel_min             =  -2.0167853655324E-02
(PID.TID 0000.0001) %MON dynstat_wvel_mean            =   1.0733557061429E-06
(PID.TID 0000.0001) %MON dynstat_wvel_sd              =   1.9927945896644E-03
(PID.TID 0000.0001) %MON dynstat_wvel_del2            =   5.4465926704079E-06
(PID.TID 0000.0001) %MON dynstat_theta_max            =   7.0595565833667E-01
(PID.TID 0000.0001) %MON dynstat_theta_min            =  -7.1519849142655E-01
(PID.TID 0000.0001) %MON dynstat_theta_mean           =   2.0289144017498E-02
(PID.TID 0000.0001) %MON dynstat_theta_sd             =   4.5211958227697E-01
(PID.TID 0000.0001) %MON dynstat_theta_del2           =   8.7931482462367E-06
(PID.TID 0000.0001) %MON dynstat_salt_max             =   3.5221621888097E+01
(PID.TID 0000.0001) %MON dynstat_salt_min             =   3.4998616998097E+01
(PID.TID 0000.0001) %MON dynstat_salt_mean            =   3.5003119751183E+01
(PID.TID 0000.0001) %MON dynstat_salt_sd              =   2.5461857062496E-02
(PID.TID 0000.0001) %MON dynstat_salt_del2            =   4.4929204055463E-04
(PID.TID 0000.0001) %MON advcfl_uvel_max              =   7.6019768574326E-02
(PID.TID 0000.0001) %MON advcfl_vvel_max              =   2.7642483930451E-02
(PID.TID 0000.0001) %MON advcfl_wvel_max              =   2.3321757590060E-02
(PID.TID 0000.0001) %MON advcfl_W_hf_max              =   5.8096172591748E-02
(PID.TID 0000.0001) %MON pe_b_mean                    =   6.3597903813606E-04
(PID.TID 0000.0001) %MON ke_max                       =   1.9338054791923E-01
(PID.TID 0000.0001) %MON ke_mean                      =   3.6430995994092E-02
(PID.TID 0000.0001) %MON ke_vol                       =   3.3508255650979E+14
(PID.TID 0000.0001) %MON vort_r_min                   =  -1.7277042084130E-04
(PID.TID 0000.0001) %MON vort_r_max                   =   1.5218686581495E-04
(PID.TID 0000.0001) %MON vort_a_mean                  =   1.0000000000000E-04
(PID.TID 0000.0001) %MON vort_a_sd                    =   7.0335917351772E-06
(PID.TID 0000.0001) %MON vort_p_mean                  =   1.0161670869457E-04
(PID.TID 0000.0001) %MON vort_p_sd                    =   3.5363622591257E-05
(PID.TID 0000.0001) %MON surfExpan_theta_mean         =   1.6248310409245E-06
(PID.TID 0000.0001) %MON surfExpan_salt_mean          =   1.3487959300169E-03
(PID.TID 0000.0001) // =======================================================
(PID.TID 0000.0001) // End MONITOR dynamic field statistics
(PID.TID 0000.0001) // =======================================================
(PID.TID 0000.0001) // =======================================================
(PID.TID 0000.0001) // Begin OBCS MONITOR field statistics
(PID.TID 0000.0001) // =======================================================
(PID.TID 0000.0001) %MON obc_time_tsnumber            =                     6
(PID.TID 0000.0001) %MON obc_time_secondsf            =   1.4400000000000E+04
(PID.TID 0000.0001) %MON obc_E_uVel_max               =   2.4833333333333E-01
(PID.TID 0000.0001) %MON obc_E_uVel_min               =   2.4833333333333E-01
(PID.TID 0000.0001) %MON obc_E_uVel_mean              =   2.4833333333333E-01
(PID.TID 0000.0001) %MON obc_E_uVel_sd                =   1.1175870895386E-08
(PID.TID 0000.0001) %MON obc_E_uVel_Int               =   2.2349641296295E+08
(PID.TID 0000.0001) %MON obc_W_uVel_max               =   2.5166666666667E-01
(PID.TID 0000.0001) %MON obc_W_uVel_min               =   2.5166666666667E-01
(PID.TID 0000.0001) %MON obc_W_uVel_mean              =   2.5166666666667E-01
(PID.TID 0000.0001) %MON obc_W_uVel_sd                =   1.3938759963117E-08
(PID.TID 0000.0001) %MON obc_W_uVel_Int               =   2.2650363518518E+08
(PID.TID 0000.0001) %MON obc_N_vVel_max               =   0.0000000000000E+00
(PID.TID 0000.0001) %MON obc_N_vVel_min               =   0.0000000000000E+00
(PID.TID 0000.0001) %MON obc_N_vVel_mean              =   0.0000000000000E+00
(PID.TID 0000.0001) %MON obc_N_vVel_sd                =   0.0000000000000E+00
(PID.TID 0000.0001) %MON obc_N_vVel_Int               =   0.0000000000000E+00
(PID.TID 0000.0001) %MON obc_S_vVel_max               =   0.0000000000000E+00
(PID.TID 0000.0001) %MON obc_S_vVel_min               =   0.0000000000000E+00
(PID.TID 0000.0001) %MON obc_S_vVel_mean              =   0.0000000000000E+00
(PID.TID 0000.0001) %MON obc_S_vVel_sd                =   0.0000000000000E+00
(PID.TID 0000.0001) %MON obc_S_vVel_Int               =   0.0000000000000E+00
(PID.TID 0000.0001) %MON obc_E_theta_max              =   6.9683400000000E-01
(PID.TID 0000.0001) %MON obc_E_theta_min              =  -6.9683400000000E-01
(PID.TID 0000.0001) %MON obc_E_theta_mean             =   2.6215599015317E-14
(PID.TID 0000.0001) %MON obc_E_theta_sd               =   4.5618475594441E-01
(PID.TID 0000.0001) %MON obc_W_theta_max              =   6.9683400000000E-01
(PID.TID 0000.0001) %MON obc_W_theta_min              =  -6.9683400000000E-01
(PID.TID 0000.0001) %MON obc_W_theta_mean             =   2.6239851107094E-14
(PID.TID 0000.0001) %MON obc_W_theta_sd               =   4.5618475594441E-01
(PID.TID 0000.0001) %MON obc_N_theta_max              =   6.9683400000000E-01
(PID.TID 0000.0001) %MON obc_N_theta_min              =  -6.9683400000000E-01
(PID.TID 0000.0001) %MON obc_N_theta_mean             =   5.0183265503355E-05
(PID.TID 0000.0001) %MON obc_N_theta_sd               =   4.5616285086401E-01
(PID.TID 0000.0001) %MON obc_S_theta_max              =   6.9683400000000E-01
(PID.TID 0000.0001) %MON obc_S_theta_min              =  -6.9683400000000E-01
(PID.TID 0000.0001) %MON obc_S_theta_mean             =   5.0183265503355E-05
(PID.TID 0000.0001) %MON obc_S_theta_sd               =   4.5616285086401E-01
(PID.TID 0000.0001) // =======================================================
(PID.TID 0000.0001) // End OBCS MONITOR field statistics
(PID.TID 0000.0001) // =======================================================
(PID.TID 0000.0001) // =======================================================
(PID.TID 0000.0001) // Begin MONITOR ptracer field statistics
(PID.TID 0000.0001) // =======================================================
(PID.TID 0000.0001) %MON trcstat_ptracer01_max        =   3.5221621888097E+01
(PID.TID 0000.0001) %MON trcstat_ptracer01_min        =   3.4998608170339E+01
(PID.TID 0000.0001) %MON trcstat_ptracer01_mean       =   3.5004213629741E+01
(PID.TID 0000.0001) %MON trcstat_ptracer01_sd         =   2.5904414828292E-02
(PID.TID 0000.0001) %MON trcstat_ptracer01_del2       =   4.4801979070087E-04
(PID.TID 0000.0001) // =======================================================
(PID.TID 0000.0001) // End MONITOR ptracers field statistics
(PID.TID 0000.0001) // =======================================================
 EXTERNAL_FIELDS_LOAD,         6 : iP,iLd,i0,i1=    1    2    1    2 ; Wght=  0.8333333333  0.1666666667
 OBCS_FIELDS_LOAD,         7 : iP,iLd,i0,i1=    1    2    1    2 ; Wght=  0.8055555556  0.1944444444
 cg2d: Sum(rhs),rhsMax =  -6.07779979102109E+01  1.49654140068626E-01
(PID.TID 0000.0001)      cg2d_init_res =   3.53959395629310E+00
(PID.TID 0000.0001)      cg2d_iters(min,last) =      -1     196
(PID.TID 0000.0001)      cg2d_last_res =   8.48089607158156E-14
(PID.TID 0000.0001) // =======================================================
(PID.TID 0000.0001) // Begin MONITOR dynamic field statistics
(PID.TID 0000.0001) // =======================================================
(PID.TID 0000.0001) %MON time_tsnumber                =                     7
(PID.TID 0000.0001) %MON time_secondsf                =   1.5000000000000E+04
(PID.TID 0000.0001) %MON dynstat_eta_max              =   1.0147586798321E+00
(PID.TID 0000.0001) %MON dynstat_eta_min              =  -6.4146676887408E-01
(PID.TID 0000.0001) %MON dynstat_eta_mean             =   1.8891025641025E-01
(PID.TID 0000.0001) %MON dynstat_eta_sd               =   4.4801054935331E-01
(PID.TID 0000.0001) %MON dynstat_eta_del2             =   2.5525394910975E-05
(PID.TID 0000.0001) %MON dynstat_uvel_max             =   5.7542027443527E-01
(PID.TID 0000.0001) %MON dynstat_uvel_min             =   1.7889670388299E-01
(PID.TID 0000.0001) %MON dynstat_uvel_mean            =   2.5060414345108E-01
(PID.TID 0000.0001) %MON dynstat_uvel_sd              =   2.6716249607788E-02
(PID.TID 0000.0001) %MON dynstat_uvel_del2            =   3.5825540613386E-05
(PID.TID 0000.0001) %MON dynstat_vvel_max             =   1.2919675894011E-01
(PID.TID 0000.0001) %MON dynstat_vvel_min             =  -2.5372226008067E-01
(PID.TID 0000.0001) %MON dynstat_vvel_mean            =   5.0566391788549E-04
(PID.TID 0000.0001) %MON dynstat_vvel_sd              =   2.1275129411058E-02
(PID.TID 0000.0001) %MON dynstat_vvel_del2            =   3.5217754457077E-05
(PID.TID 0000.0001) %MON dynstat_wvel_max             =   1.9273195655495E-02
(PID.TID 0000.0001) %MON dynstat_wvel_min             =  -1.7505342141398E-02
(PID.TID 0000.0001) %MON dynstat_wvel_mean            =   9.9296645017006E-07
(PID.TID 0000.0001) %MON dynstat_wvel_sd              =   1.7820867621393E-03
(PID.TID 0000.0001) %MON dynstat_wvel_del2            =   4.9202962263601E-06
(PID.TID 0000.0001) %MON dynstat_theta_max            =   7.0692719854796E-01
(PID.TID 0000.0001) %MON dynstat_theta_min            =  -7.1728764251725E-01
(PID.TID 0000.0001) %MON dynstat_theta_mean           =   2.0289098842694E-02
(PID.TID 0000.0001) %MON dynstat_theta_sd             =   4.5211950404401E-01
(PID.TID 0000.0001) %MON dynstat_theta_del2           =   9.3970378190282E-06
(PID.TID 0000.0001) %MON dynstat_salt_max             =   3.5252562135603E+01
(PID.TID 0000.0001) %MON dynstat_salt_min             =   3.4998722339271E+01
(PID.TID 0000.0001) %MON dynstat_salt_mean            =   3.5003625824024E+01
(PID.TID 0000.0001) %MON dynstat_salt_sd              =   2.9033561532612E-02
(PID.TID 0000.0001) %MON dynstat_salt_del2            =   4.1637908533514E-04
(PID.TID 0000.0001) %MON advcfl_uvel_max              =   6.9050432932233E-02
(PID.TID 0000.0001) %MON advcfl_vvel_max              =   3.0446671209681E-02
(PID.TID 0000.0001) %MON advcfl_wvel_max              =   2.0558075365862E-02
(PID.TID 0000.0001) %MON advcfl_W_hf_max              =   5.1599609991948E-02
(PID.TID 0000.0001) %MON pe_b_mean                    =   2.6991555601525E-04
(PID.TID 0000.0001) %MON ke_max                       =   1.5708566632885E-01
(PID.TID 0000.0001) %MON ke_mean                      =   3.1876641963873E-02
(PID.TID 0000.0001) %MON ke_vol                       =   3.3508436084313E+14
(PID.TID 0000.0001) %MON vort_r_min                   =  -1.6582850690319E-04
(PID.TID 0000.0001) %MON vort_r_max                   =   1.4320418075651E-04
(PID.TID 0000.0001) %MON vort_a_mean                  =   1.0000000000000E-04
(PID.TID 0000.0001) %MON vort_a_sd                    =   6.3282283960577E-06
(PID.TID 0000.0001) %MON vort_p_mean                  =   1.0161620998859E-04
(PID.TID 0000.0001) %MON vort_p_sd                    =   3.4331792630341E-05
(PID.TID 0000.0001) %MON surfExpan_theta_mean         =   1.1657347978565E-06
(PID.TID 0000.0001) %MON surfExpan_salt_mean          =   1.2393033937153E-03
(PID.TID 0000.0001) // =======================================================
(PID.TID 0000.0001) // End MONITOR dynamic field statistics
(PID.TID 0000.0001) // =======================================================
(PID.TID 0000.0001) // =======================================================
(PID.TID 0000.0001) // Begin MONITOR ptracer field statistics
(PID.TID 0000.0001) // =======================================================
(PID.TID 0000.0001) %MON trcstat_ptracer01_max        =   3.5252562135603E+01
(PID.TID 0000.0001) %MON trcstat_ptracer01_min        =   3.4998695560279E+01
(PID.TID 0000.0001) %MON trcstat_ptracer01_mean       =   3.5004888860145E+01
(PID.TID 0000.0001) %MON trcstat_ptracer01_sd         =   2.9557799410343E-02
(PID.TID 0000.0001) %MON trcstat_ptracer01_del2       =   4.1462736930328E-04
(PID.TID 0000.0001) // =======================================================
(PID.TID 0000.0001) // End MONITOR ptracers field statistics
(PID.TID 0000.0001) // =======================================================
 EXTERNAL_FIELDS_LOAD,         7 : iP,iLd,i0,i1=    1    2    1    2 ; Wght=  0.8055555556  0.1944444444
 OBCS_FIELDS_LOAD,         8 : iP,iLd,i0,i1=    1    2    1    2 ; Wght=  0.7777777778  0.2222222222
 cg2d: Sum(rhs),rhsMax =  -7.21633026512122E+01  1.38905343082831E-01
(PID.TID 0000.0001)      cg2d_init_res =   4.21353387162923E+00
(PID.TID 0000.0001)      cg2d_iters(min,last) =      -1     196
(PID.TID 0000.0001)      cg2d_last_res =   8.86226364175080E-14
(PID.TID 0000.0001) // =======================================================
(PID.TID 0000.0001) // Begin MONITOR dynamic field statistics
(PID.TID 0000.0001) // =======================================================
(PID.TID 0000.0001) %MON time_tsnumber                =                     8
(PID.TID 0000.0001) %MON time_secondsf                =   1.5600000000000E+04
(PID.TID 0000.0001) %MON dynstat_eta_max              =   5.4243017337894E-01
(PID.TID 0000.0001) %MON dynstat_eta_min              =  -1.3244849911698E-01
(PID.TID 0000.0001) %MON dynstat_eta_mean             =   2.0818803418803E-01
(PID.TID 0000.0001) %MON dynstat_eta_sd               =   1.5211027806804E-01
(PID.TID 0000.0001) %MON dynstat_eta_del2             =   9.5107475450024E-06
(PID.TID 0000.0001) %MON dynstat_uvel_max             =   5.6571425098994E-01
(PID.TID 0000.0001) %MON dynstat_uvel_min             =   1.7134437925312E-01
(PID.TID 0000.0001) %MON dynstat_uvel_mean            =   2.4761550825700E-01
(PID.TID 0000.0001) %MON dynstat_uvel_sd              =   2.5771435785164E-02
(PID.TID 0000.0001) %MON dynstat_uvel_del2            =   3.5216032153271E-05
(PID.TID 0000.0001) %MON dynstat_vvel_max             =   1.3689492385901E-01
(PID.TID 0000.0001) %MON dynstat_vvel_min             =  -2.7971696609426E-01
(PID.TID 0000.0001) %MON dynstat_vvel_mean            =   1.7011102270472E-04
(PID.TID 0000.0001) %MON dynstat_vvel_sd              =   2.1788985514343E-02
(PID.TID 0000.0001) %MON dynstat_vvel_del2            =   3.7501250353699E-05
(PID.TID 0000.0001) %MON dynstat_wvel_max             =   1.8514778481163E-02
(PID.TID 0000.0001) %MON dynstat_wvel_min             =  -1.6637979069790E-02
(PID.TID 0000.0001) %MON dynstat_wvel_mean            =   8.3441104132529E-07
(PID.TID 0000.0001) %MON dynstat_wvel_sd              =   1.7294175331483E-03
(PID.TID 0000.0001) %MON dynstat_wvel_del2            =   4.7356254947903E-06
(PID.TID 0000.0001) %MON dynstat_theta_max            =   7.0778165759740E-01
(PID.TID 0000.0001) %MON dynstat_theta_min            =  -7.1916592414968E-01
(PID.TID 0000.0001) %MON dynstat_theta_mean           =   2.0289044319816E-02
(PID.TID 0000.0001) %MON dynstat_theta_sd             =   4.5211942725012E-01
(PID.TID 0000.0001) %MON dynstat_theta_del2           =   9.8924273090187E-06
(PID.TID 0000.0001) %MON dynstat_salt_max             =   3.5282013143776E+01
(PID.TID 0000.0001) %MON dynstat_salt_min             =   3.4999069087988E+01
(PID.TID 0000.0001) %MON dynstat_salt_mean            =   3.5004128365768E+01
(PID.TID 0000.0001) %MON dynstat_salt_sd              =   3.2452881460027E-02
(PID.TID 0000.0001) %MON dynstat_salt_del2            =   3.8701786364794E-04
(PID.TID 0000.0001) %MON advcfl_uvel_max              =   6.7885710118792E-02
(PID.TID 0000.0001) %MON advcfl_vvel_max              =   3.3566035931312E-02
(PID.TID 0000.0001) %MON advcfl_wvel_max              =   1.9749097046574E-02
(PID.TID 0000.0001) %MON advcfl_W_hf_max              =   4.9619065652125E-02
(PID.TID 0000.0001) %MON pe_b_mean                    =   7.5904404732674E-05
(PID.TID 0000.0001) %MON ke_max                       =   1.5094809513885E-01
(PID.TID 0000.0001) %MON ke_mean                      =   3.1111116377360E-02
(PID.TID 0000.0001) %MON ke_vol                       =   3.3508601484313E+14
(PID.TID 0000.0001) %MON vort_r_min                   =  -1.6908624341684E-04
(PID.TID 0000.0001) %MON vort_r_max                   =   1.4475746327699E-04
(PID.TID 0000.0001) %MON vort_a_mean                  =   1.0000000000000E-04
(PID.TID 0000.0001) %MON vort_a_sd                    =   6.2662963830468E-06
(PID.TID 0000.0001) %MON vort_p_mean                  =   1.0161575270509E-04
(PID.TID 0000.0001) %MON vort_p_sd                    =   3.4222708309640E-05
(PID.TID 0000.0001) %MON surfExpan_theta_mean         =   8.3858830376140E-07
(PID.TID 0000.0001) %MON surfExpan_salt_mean          =   1.1278336181814E-03
(PID.TID 0000.0001) // =======================================================
(PID.TID 0000.0001) // End MONITOR dynamic field statistics
(PID.TID 0000.0001) // =======================================================
(PID.TID 0000.0001) // =======================================================
(PID.TID 0000.0001) // Begin OBCS MONITOR field statistics
(PID.TID 0000.0001) // =======================================================
(PID.TID 0000.0001) %MON obc_time_tsnumber            =                     8
(PID.TID 0000.0001) %MON obc_time_secondsf            =   1.5600000000000E+04
(PID.TID 0000.0001) %MON obc_E_uVel_max               =   2.4861111111111E-01
(PID.TID 0000.0001) %MON obc_E_uVel_min               =   2.4861111111111E-01
(PID.TID 0000.0001) %MON obc_E_uVel_mean              =   2.4861111111111E-01
(PID.TID 0000.0001) %MON obc_E_uVel_sd                =  -1.1796119636642E-16
(PID.TID 0000.0001) %MON obc_E_uVel_Int               =   2.2374696141975E+08
(PID.TID 0000.0001) %MON obc_W_uVel_max               =   2.5138888888889E-01
(PID.TID 0000.0001) %MON obc_W_uVel_min               =   2.5138888888889E-01
(PID.TID 0000.0001) %MON obc_W_uVel_mean              =   2.5138888888889E-01
(PID.TID 0000.0001) %MON obc_W_uVel_sd                =  -3.8857805861880E-16
(PID.TID 0000.0001) %MON obc_W_uVel_Int               =   2.2625307253086E+08
(PID.TID 0000.0001) %MON obc_N_vVel_max               =   0.0000000000000E+00
(PID.TID 0000.0001) %MON obc_N_vVel_min               =   0.0000000000000E+00
(PID.TID 0000.0001) %MON obc_N_vVel_mean              =   0.0000000000000E+00
(PID.TID 0000.0001) %MON obc_N_vVel_sd                =   0.0000000000000E+00
(PID.TID 0000.0001) %MON obc_N_vVel_Int               =   0.0000000000000E+00
(PID.TID 0000.0001) %MON obc_S_vVel_max               =   0.0000000000000E+00
(PID.TID 0000.0001) %MON obc_S_vVel_min               =   0.0000000000000E+00
(PID.TID 0000.0001) %MON obc_S_vVel_mean              =   0.0000000000000E+00
(PID.TID 0000.0001) %MON obc_S_vVel_sd                =   0.0000000000000E+00
(PID.TID 0000.0001) %MON obc_S_vVel_Int               =   0.0000000000000E+00
(PID.TID 0000.0001) %MON obc_E_theta_max              =   6.9683400000000E-01
(PID.TID 0000.0001) %MON obc_E_theta_min              =  -6.9683400000000E-01
(PID.TID 0000.0001) %MON obc_E_theta_mean             =   2.6215275580336E-14
(PID.TID 0000.0001) %MON obc_E_theta_sd               =   4.5618475594441E-01
(PID.TID 0000.0001) %MON obc_W_theta_max              =   6.9683400000000E-01
(PID.TID 0000.0001) %MON obc_W_theta_min              =  -6.9683400000000E-01
(PID.TID 0000.0001) %MON obc_W_theta_mean             =   2.6244313748404E-14
(PID.TID 0000.0001) %MON obc_W_theta_sd               =   4.5618475594441E-01
(PID.TID 0000.0001) %MON obc_N_theta_max              =   6.9683400000000E-01
(PID.TID 0000.0001) %MON obc_N_theta_min              =  -6.9683400000000E-01
(PID.TID 0000.0001) %MON obc_N_theta_mean             =   5.0183265503355E-05
(PID.TID 0000.0001) %MON obc_N_theta_sd               =   4.5616285086401E-01
(PID.TID 0000.0001) %MON obc_S_theta_max              =   6.9683400000000E-01
(PID.TID 0000.0001) %MON obc_S_theta_min              =  -6.9683400000000E-01
(PID.TID 0000.0001) %MON obc_S_theta_mean             =   5.0183265503355E-05
(PID.TID 0000.0001) %MON obc_S_theta_sd               =   4.5616285086401E-01
(PID.TID 0000.0001) // =======================================================
(PID.TID 0000.0001) // End OBCS MONITOR field statistics
(PID.TID 0000.0001) // =======================================================
(PID.TID 0000.0001) // =======================================================
(PID.TID 0000.0001) // Begin MONITOR ptracer field statistics
(PID.TID 0000.0001) // =======================================================
(PID.TID 0000.0001) %MON trcstat_ptracer01_max        =   3.5282013143776E+01
(PID.TID 0000.0001) %MON trcstat_ptracer01_min        =   3.4999012979471E+01
(PID.TID 0000.0001) %MON trcstat_ptracer01_mean       =   3.5005557108381E+01
(PID.TID 0000.0001) %MON trcstat_ptracer01_sd         =   3.3060001449475E-02
(PID.TID 0000.0001) %MON trcstat_ptracer01_del2       =   3.8474638383501E-04
(PID.TID 0000.0001) // =======================================================
(PID.TID 0000.0001) // End MONITOR ptracers field statistics
(PID.TID 0000.0001) // =======================================================
 EXTERNAL_FIELDS_LOAD,         8 : iP,iLd,i0,i1=    1    2    1    2 ; Wght=  0.7777777778  0.2222222222
 OBCS_FIELDS_LOAD,         9 : iP,iLd,i0,i1=    1    2    1    2 ; Wght=  0.7500000000  0.2500000000
 cg2d: Sum(rhs),rhsMax =  -7.57582984838712E+01  1.43340854752312E-01
(PID.TID 0000.0001)      cg2d_init_res =   2.56926544165113E+00
(PID.TID 0000.0001)      cg2d_iters(min,last) =      -1     192
(PID.TID 0000.0001)      cg2d_last_res =   8.55647779073969E-14
(PID.TID 0000.0001) // =======================================================
(PID.TID 0000.0001) // Begin MONITOR dynamic field statistics
(PID.TID 0000.0001) // =======================================================
(PID.TID 0000.0001) %MON time_tsnumber                =                     9
(PID.TID 0000.0001) %MON time_secondsf                =   1.6200000000000E+04
(PID.TID 0000.0001) %MON dynstat_eta_max              =   6.6654366652648E-01
(PID.TID 0000.0001) %MON dynstat_eta_min              =  -2.1734501305137E-01
(PID.TID 0000.0001) %MON dynstat_eta_mean             =   2.2553846153845E-01
(PID.TID 0000.0001) %MON dynstat_eta_sd               =   2.0432035535484E-01
(PID.TID 0000.0001) %MON dynstat_eta_del2             =   1.2775570133684E-05
(PID.TID 0000.0001) %MON dynstat_uvel_max             =   5.8673800059921E-01
(PID.TID 0000.0001) %MON dynstat_uvel_min             =   1.7442563407280E-01
(PID.TID 0000.0001) %MON dynstat_uvel_mean            =   2.5318400883286E-01
(PID.TID 0000.0001) %MON dynstat_uvel_sd              =   2.7694253814762E-02
(PID.TID 0000.0001) %MON dynstat_uvel_del2            =   3.9969295272950E-05
(PID.TID 0000.0001) %MON dynstat_vvel_max             =   1.4747079297145E-01
(PID.TID 0000.0001) %MON dynstat_vvel_min             =  -3.0952431757527E-01
(PID.TID 0000.0001) %MON dynstat_vvel_mean            =  -8.5439737965922E-05
(PID.TID 0000.0001) %MON dynstat_vvel_sd              =   2.3247371537944E-02
(PID.TID 0000.0001) %MON dynstat_vvel_del2            =   4.0084159662925E-05
(PID.TID 0000.0001) %MON dynstat_wvel_max             =   1.8930813224059E-02
(PID.TID 0000.0001) %MON dynstat_wvel_min             =  -1.6884244896769E-02
(PID.TID 0000.0001) %MON dynstat_wvel_mean            =   7.0029899364244E-07
(PID.TID 0000.0001) %MON dynstat_wvel_sd              =   1.7737313506621E-03
(PID.TID 0000.0001) %MON dynstat_wvel_del2            =   4.7328645021654E-06
(PID.TID 0000.0001) %MON dynstat_theta_max            =   7.0859939195901E-01
(PID.TID 0000.0001) %MON dynstat_theta_min            =  -7.2102175045259E-01
(PID.TID 0000.0001) %MON dynstat_theta_mean           =   2.0288964929851E-02
(PID.TID 0000.0001) %MON dynstat_theta_sd             =   4.5211934312279E-01
(PID.TID 0000.0001) %MON dynstat_theta_del2           =   1.0387090835001E-05
(PID.TID 0000.0001) %MON dynstat_salt_max             =   3.5310064389806E+01
(PID.TID 0000.0001) %MON dynstat_salt_min             =   3.4999526008168E+01
(PID.TID 0000.0001) %MON dynstat_salt_mean            =   3.5004627483743E+01
(PID.TID 0000.0001) %MON dynstat_salt_sd              =   3.5731602283799E-02
(PID.TID 0000.0001) %MON dynstat_salt_del2            =   3.6088378740794E-04
(PID.TID 0000.0001) %MON advcfl_uvel_max              =   7.0408560071905E-02
(PID.TID 0000.0001) %MON advcfl_vvel_max              =   3.7142918109033E-02
(PID.TID 0000.0001) %MON advcfl_wvel_max              =   2.0192867438996E-02
(PID.TID 0000.0001) %MON advcfl_W_hf_max              =   5.0559459941753E-02
(PID.TID 0000.0001) %MON pe_b_mean                    =   1.0574355458073E-04
(PID.TID 0000.0001) %MON ke_max                       =   1.6169255418768E-01
(PID.TID 0000.0001) %MON ke_mean                      =   3.2604398913606E-02
(PID.TID 0000.0001) %MON ke_vol                       =   3.3508751850979E+14
(PID.TID 0000.0001) %MON vort_r_min                   =  -1.7925246363490E-04
(PID.TID 0000.0001) %MON vort_r_max                   =   1.5301295664343E-04
(PID.TID 0000.0001) %MON vort_a_mean                  =   1.0000000000000E-04
(PID.TID 0000.0001) %MON vort_a_sd                    =   6.5706365286155E-06
(PID.TID 0000.0001) %MON vort_p_mean                  =   1.0161533711310E-04
(PID.TID 0000.0001) %MON vort_p_sd                    =   3.4663326308563E-05
(PID.TID 0000.0001) %MON surfExpan_theta_mean         =   7.5448984446566E-07
(PID.TID 0000.0001) %MON surfExpan_salt_mean          =   1.0144857461506E-03
(PID.TID 0000.0001) // =======================================================
(PID.TID 0000.0001) // End MONITOR dynamic field statistics
(PID.TID 0000.0001) // =======================================================
(PID.TID 0000.0001) // =======================================================
(PID.TID 0000.0001) // Begin MONITOR ptracer field statistics
(PID.TID 0000.0001) // =======================================================
(PID.TID 0000.0001) %MON trcstat_ptracer01_max        =   3.5310064389806E+01
(PID.TID 0000.0001) %MON trcstat_ptracer01_min        =   3.4999526008168E+01
(PID.TID 0000.0001) %MON trcstat_ptracer01_mean       =   3.5006218582518E+01
(PID.TID 0000.0001) %MON trcstat_ptracer01_sd         =   3.6422431346737E-02
(PID.TID 0000.0001) %MON trcstat_ptracer01_del2       =   3.5806303707274E-04
(PID.TID 0000.0001) // =======================================================
(PID.TID 0000.0001) // End MONITOR ptracers field statistics
(PID.TID 0000.0001) // =======================================================
 EXTERNAL_FIELDS_LOAD,         9 : iP,iLd,i0,i1=    1    2    1    2 ; Wght=  0.7500000000  0.2500000000
 OBCS_FIELDS_LOAD,        10 : iP,iLd,i0,i1=    1    2    1    2 ; Wght=  0.7222222222  0.2777777778
 cg2d: Sum(rhs),rhsMax =  -7.57063350815668E+01  1.53248097921415E-01
(PID.TID 0000.0001)      cg2d_init_res =   7.95176741778973E-01
(PID.TID 0000.0001)      cg2d_iters(min,last) =      -1     194
(PID.TID 0000.0001)      cg2d_last_res =   7.80979215247294E-14
(PID.TID 0000.0001) // =======================================================
(PID.TID 0000.0001) // Begin MONITOR dynamic field statistics
(PID.TID 0000.0001) // =======================================================
(PID.TID 0000.0001) %MON time_tsnumber                =                    10
(PID.TID 0000.0001) %MON time_secondsf                =   1.6800000000000E+04
(PID.TID 0000.0001) %MON dynstat_eta_max              =   7.5755973831942E-01
(PID.TID 0000.0001) %MON dynstat_eta_min              =  -2.7667149717907E-01
(PID.TID 0000.0001) %MON dynstat_eta_mean             =   2.4096153846153E-01
(PID.TID 0000.0001) %MON dynstat_eta_sd               =   2.4734938684341E-01
(PID.TID 0000.0001) %MON dynstat_eta_del2             =   1.5337159637318E-05
(PID.TID 0000.0001) %MON dynstat_uvel_max             =   6.1443219473289E-01
(PID.TID 0000.0001) %MON dynstat_uvel_min             =   1.7960541184232E-01
(PID.TID 0000.0001) %MON dynstat_uvel_mean            =   2.6060468667663E-01
(PID.TID 0000.0001) %MON dynstat_uvel_sd              =   3.0650935081170E-02
(PID.TID 0000.0001) %MON dynstat_uvel_del2            =   4.8394179565214E-05
(PID.TID 0000.0001) %MON dynstat_vvel_max             =   1.5894288892342E-01
(PID.TID 0000.0001) %MON dynstat_vvel_min             =  -3.4202233658966E-01
(PID.TID 0000.0001) %MON dynstat_vvel_mean            =  -1.7850455308412E-04
(PID.TID 0000.0001) %MON dynstat_vvel_sd              =   2.4982103725187E-02
(PID.TID 0000.0001) %MON dynstat_vvel_del2            =   4.2905631182061E-05
(PID.TID 0000.0001) %MON dynstat_wvel_max             =   1.9619436206723E-02
(PID.TID 0000.0001) %MON dynstat_wvel_min             =  -1.7362224124237E-02
(PID.TID 0000.0001) %MON dynstat_wvel_mean            =   6.0403541007968E-07
(PID.TID 0000.0001) %MON dynstat_wvel_sd              =   1.8383407039625E-03
(PID.TID 0000.0001) %MON dynstat_wvel_del2            =   4.8023214129295E-06
(PID.TID 0000.0001) %MON dynstat_theta_max            =   7.0950460322605E-01
(PID.TID 0000.0001) %MON dynstat_theta_min            =  -7.2289992183257E-01
(PID.TID 0000.0001) %MON dynstat_theta_mean           =   2.0288875665227E-02
(PID.TID 0000.0001) %MON dynstat_theta_sd             =   4.5211924395469E-01
(PID.TID 0000.0001) %MON dynstat_theta_del2           =   1.0902443195505E-05
(PID.TID 0000.0001) %MON dynstat_salt_max             =   3.5336794242669E+01
(PID.TID 0000.0001) %MON dynstat_salt_min             =   3.4999436722137E+01
(PID.TID 0000.0001) %MON dynstat_salt_mean            =   3.5005123140013E+01
(PID.TID 0000.0001) %MON dynstat_salt_sd              =   3.8879662865889E-02
(PID.TID 0000.0001) %MON dynstat_salt_del2            =   3.3768303756802E-04
(PID.TID 0000.0001) %MON advcfl_uvel_max              =   7.3731863367947E-02
(PID.TID 0000.0001) %MON advcfl_vvel_max              =   4.1042680390759E-02
(PID.TID 0000.0001) %MON advcfl_wvel_max              =   2.0927398620505E-02
(PID.TID 0000.0001) %MON advcfl_W_hf_max              =   5.2143946791920E-02
(PID.TID 0000.0001) %MON pe_b_mean                    =   1.3614785657597E-04
(PID.TID 0000.0001) %MON ke_max                       =   1.7785686476600E-01
(PID.TID 0000.0001) %MON ke_mean                      =   3.4659010179015E-02
(PID.TID 0000.0001) %MON ke_vol                       =   3.3508887184313E+14
(PID.TID 0000.0001) %MON vort_r_min                   =  -1.9129090626451E-04
(PID.TID 0000.0001) %MON vort_r_max                   =   1.6274499413199E-04
(PID.TID 0000.0001) %MON vort_a_mean                  =   1.0000000000000E-04
(PID.TID 0000.0001) %MON vort_a_sd                    =   6.9757738868226E-06
(PID.TID 0000.0001) %MON vort_p_mean                  =   1.0161496321197E-04
(PID.TID 0000.0001) %MON vort_p_sd                    =   3.5249736353248E-05
(PID.TID 0000.0001) %MON surfExpan_theta_mean         =   8.0607808863573E-07
(PID.TID 0000.0001) %MON surfExpan_salt_mean          =   9.0035585449184E-04
(PID.TID 0000.0001) // =======================================================
(PID.TID 0000.0001) // End MONITOR dynamic field statistics
(PID.TID 0000.0001) // =======================================================
(PID.TID 0000.0001) // =======================================================
(PID.TID 0000.0001) // Begin OBCS MONITOR field statistics
(PID.TID 0000.0001) // =======================================================
(PID.TID 0000.0001) %MON obc_time_tsnumber            =                    10
(PID.TID 0000.0001) %MON obc_time_secondsf            =   1.6800000000000E+04
(PID.TID 0000.0001) %MON obc_E_uVel_max               =   2.4888888888889E-01
(PID.TID 0000.0001) %MON obc_E_uVel_min               =   2.4888888888889E-01
(PID.TID 0000.0001) %MON obc_E_uVel_mean              =   2.4888888888889E-01
(PID.TID 0000.0001) %MON obc_E_uVel_sd                =  -2.5673907444457E-16
(PID.TID 0000.0001) %MON obc_E_uVel_Int               =   2.2399751111110E+08
(PID.TID 0000.0001) %MON obc_W_uVel_max               =   2.5111111111111E-01
(PID.TID 0000.0001) %MON obc_W_uVel_min               =   2.5111111111111E-01
(PID.TID 0000.0001) %MON obc_W_uVel_mean              =   2.5111111111111E-01
(PID.TID 0000.0001) %MON obc_W_uVel_sd                =  -9.7144514654701E-17
(PID.TID 0000.0001) %MON obc_W_uVel_Int               =   2.2600251111110E+08
(PID.TID 0000.0001) %MON obc_N_vVel_max               =   0.0000000000000E+00
(PID.TID 0000.0001) %MON obc_N_vVel_min               =   0.0000000000000E+00
(PID.TID 0000.0001) %MON obc_N_vVel_mean              =   0.0000000000000E+00
(PID.TID 0000.0001) %MON obc_N_vVel_sd                =   0.0000000000000E+00
(PID.TID 0000.0001) %MON obc_N_vVel_Int               =   0.0000000000000E+00
(PID.TID 0000.0001) %MON obc_S_vVel_max               =   0.0000000000000E+00
(PID.TID 0000.0001) %MON obc_S_vVel_min               =   0.0000000000000E+00
(PID.TID 0000.0001) %MON obc_S_vVel_mean              =   0.0000000000000E+00
(PID.TID 0000.0001) %MON obc_S_vVel_sd                =   0.0000000000000E+00
(PID.TID 0000.0001) %MON obc_S_vVel_Int               =   0.0000000000000E+00
(PID.TID 0000.0001) %MON obc_E_theta_max              =   6.9683400000000E-01
(PID.TID 0000.0001) %MON obc_E_theta_min              =  -6.9683400000000E-01
(PID.TID 0000.0001) %MON obc_E_theta_mean             =   2.6204345299776E-14
(PID.TID 0000.0001) %MON obc_E_theta_sd               =   4.5618475594441E-01
(PID.TID 0000.0001) %MON obc_W_theta_max              =   6.9683400000000E-01
(PID.TID 0000.0001) %MON obc_W_theta_min              =  -6.9683400000000E-01
(PID.TID 0000.0001) %MON obc_W_theta_mean             =   2.6249552505274E-14
(PID.TID 0000.0001) %MON obc_W_theta_sd               =   4.5618475594441E-01
(PID.TID 0000.0001) %MON obc_N_theta_max              =   6.9683400000000E-01
(PID.TID 0000.0001) %MON obc_N_theta_min              =  -6.9683400000000E-01
(PID.TID 0000.0001) %MON obc_N_theta_mean             =   5.0183265503355E-05
(PID.TID 0000.0001) %MON obc_N_theta_sd               =   4.5616285086401E-01
(PID.TID 0000.0001) %MON obc_S_theta_max              =   6.9683400000000E-01
(PID.TID 0000.0001) %MON obc_S_theta_min              =  -6.9683400000000E-01
(PID.TID 0000.0001) %MON obc_S_theta_mean             =   5.0183265503355E-05
(PID.TID 0000.0001) %MON obc_S_theta_sd               =   4.5616285086401E-01
(PID.TID 0000.0001) // =======================================================
(PID.TID 0000.0001) // End OBCS MONITOR field statistics
(PID.TID 0000.0001) // =======================================================
(PID.TID 0000.0001) // =======================================================
(PID.TID 0000.0001) // Begin MONITOR ptracer field statistics
(PID.TID 0000.0001) // =======================================================
(PID.TID 0000.0001) %MON trcstat_ptracer01_max        =   3.5336794242671E+01
(PID.TID 0000.0001) %MON trcstat_ptracer01_min        =   3.4999436722137E+01
(PID.TID 0000.0001) %MON trcstat_ptracer01_mean       =   3.5006873399647E+01
(PID.TID 0000.0001) %MON trcstat_ptracer01_sd         =   3.9654747706547E-02
(PID.TID 0000.0001) %MON trcstat_ptracer01_del2       =   3.3429359389227E-04
(PID.TID 0000.0001) // =======================================================
(PID.TID 0000.0001) // End MONITOR ptracers field statistics
(PID.TID 0000.0001) // =======================================================
(PID.TID 0000.0001) %CHECKPOINT        10 ckptA
(PID.TID 0000.0001)   Seconds in section "ALL                    [THE_MODEL_MAIN]":
(PID.TID 0000.0001)           User time:   6.5499999999999998
(PID.TID 0000.0001)         System time:  2.99999999999999989E-002
(PID.TID 0000.0001)     Wall clock time:   6.6363959312438965
(PID.TID 0000.0001)          No. starts:           1
(PID.TID 0000.0001)           No. stops:           1
(PID.TID 0000.0001)   Seconds in section "INITIALISE_FIXED       [THE_MODEL_MAIN]":
(PID.TID 0000.0001)           User time:  8.00000000000000017E-002
(PID.TID 0000.0001)         System time:  1.00000000000000002E-002
(PID.TID 0000.0001)     Wall clock time:  0.11266303062438965
(PID.TID 0000.0001)          No. starts:           1
(PID.TID 0000.0001)           No. stops:           1
(PID.TID 0000.0001)   Seconds in section "THE_MAIN_LOOP          [THE_MODEL_MAIN]":
(PID.TID 0000.0001)           User time:   6.4699999999999998
(PID.TID 0000.0001)         System time:  1.99999999999999969E-002
(PID.TID 0000.0001)     Wall clock time:   6.5236937999725342
(PID.TID 0000.0001)          No. starts:           1
(PID.TID 0000.0001)           No. stops:           1
(PID.TID 0000.0001)   Seconds in section "INITIALISE_VARIA    [THE_MAIN_LOOP]":
(PID.TID 0000.0001)           User time:  0.14000000000000001
(PID.TID 0000.0001)         System time:  1.00000000000000002E-002
(PID.TID 0000.0001)     Wall clock time:  0.14109182357788086
(PID.TID 0000.0001)          No. starts:           1
(PID.TID 0000.0001)           No. stops:           1
(PID.TID 0000.0001)   Seconds in section "MAIN LOOP           [THE_MAIN_LOOP]":
(PID.TID 0000.0001)           User time:   6.3300000000000001
(PID.TID 0000.0001)         System time:  9.99999999999999847E-003
(PID.TID 0000.0001)     Wall clock time:   6.3825719356536865
(PID.TID 0000.0001)          No. starts:           1
(PID.TID 0000.0001)           No. stops:           1
(PID.TID 0000.0001)   Seconds in section "MAIN_DO_LOOP        [THE_MAIN_LOOP]":
(PID.TID 0000.0001)           User time:   6.3300000000000010
(PID.TID 0000.0001)         System time:  9.99999999999999847E-003
(PID.TID 0000.0001)     Wall clock time:   6.3824739456176758
(PID.TID 0000.0001)          No. starts:          10
(PID.TID 0000.0001)           No. stops:          10
(PID.TID 0000.0001)   Seconds in section "FORWARD_STEP        [MAIN_DO_LOOP]":
(PID.TID 0000.0001)           User time:   6.3300000000000010
(PID.TID 0000.0001)         System time:  9.99999999999999847E-003
(PID.TID 0000.0001)     Wall clock time:   6.3822886943817139
(PID.TID 0000.0001)          No. starts:          10
(PID.TID 0000.0001)           No. stops:          10
(PID.TID 0000.0001)   Seconds in section "LOAD_FIELDS_DRIVER  [FORWARD_STEP]":
(PID.TID 0000.0001)           User time:  5.00000000000015987E-002
(PID.TID 0000.0001)         System time:   0.0000000000000000
(PID.TID 0000.0001)     Wall clock time:  7.28437900543212891E-002
(PID.TID 0000.0001)          No. starts:          10
(PID.TID 0000.0001)           No. stops:          10
(PID.TID 0000.0001)   Seconds in section "EXTERNAL_FLDS_LOAD [LOAD_FLDS_DRIVER]":
(PID.TID 0000.0001)           User time:   0.0000000000000000
(PID.TID 0000.0001)         System time:   0.0000000000000000
(PID.TID 0000.0001)     Wall clock time:  1.69324874877929688E-003
(PID.TID 0000.0001)          No. starts:          10
(PID.TID 0000.0001)           No. stops:          10
(PID.TID 0000.0001)   Seconds in section "RBCS_FIELDS_LOAD      [I/O]":
(PID.TID 0000.0001)           User time:  4.00000000000009237E-002
(PID.TID 0000.0001)         System time:   0.0000000000000000
(PID.TID 0000.0001)     Wall clock time:  6.16185665130615234E-002
(PID.TID 0000.0001)          No. starts:          10
(PID.TID 0000.0001)           No. stops:          10
(PID.TID 0000.0001)   Seconds in section "DO_ATMOSPHERIC_PHYS [FORWARD_STEP]":
(PID.TID 0000.0001)           User time:   0.0000000000000000
(PID.TID 0000.0001)         System time:   0.0000000000000000
(PID.TID 0000.0001)     Wall clock time:  9.72747802734375000E-005
(PID.TID 0000.0001)          No. starts:          10
(PID.TID 0000.0001)           No. stops:          10
(PID.TID 0000.0001)   Seconds in section "DO_OCEANIC_PHYS     [FORWARD_STEP]":
(PID.TID 0000.0001)           User time:  2.00000000000004619E-002
(PID.TID 0000.0001)         System time:   0.0000000000000000
(PID.TID 0000.0001)     Wall clock time:  3.48238945007324219E-002
(PID.TID 0000.0001)          No. starts:          10
(PID.TID 0000.0001)           No. stops:          10
(PID.TID 0000.0001)   Seconds in section "DYNAMICS            [FORWARD_STEP]":
(PID.TID 0000.0001)           User time:   1.3799999999999990
(PID.TID 0000.0001)         System time:   0.0000000000000000
(PID.TID 0000.0001)     Wall clock time:   1.3705730438232422
(PID.TID 0000.0001)          No. starts:          10
(PID.TID 0000.0001)           No. stops:          10
(PID.TID 0000.0001)   Seconds in section "UPDATE_R_STAR       [FORWARD_STEP]":
(PID.TID 0000.0001)           User time:  8.00000000000000711E-002
(PID.TID 0000.0001)         System time:   0.0000000000000000
(PID.TID 0000.0001)     Wall clock time:  7.50203132629394531E-002
(PID.TID 0000.0001)          No. starts:          10
(PID.TID 0000.0001)           No. stops:          10
(PID.TID 0000.0001)   Seconds in section "UPDATE_CG2D         [FORWARD_STEP]":
(PID.TID 0000.0001)           User time:  1.99999999999995737E-002
(PID.TID 0000.0001)         System time:   0.0000000000000000
(PID.TID 0000.0001)     Wall clock time:  3.83212566375732422E-002
(PID.TID 0000.0001)          No. starts:          10
(PID.TID 0000.0001)           No. stops:          10
(PID.TID 0000.0001)   Seconds in section "SOLVE_FOR_PRESSURE  [FORWARD_STEP]":
(PID.TID 0000.0001)           User time:   2.7000000000000020
(PID.TID 0000.0001)         System time:   0.0000000000000000
(PID.TID 0000.0001)     Wall clock time:   2.6973531246185303
(PID.TID 0000.0001)          No. starts:          10
(PID.TID 0000.0001)           No. stops:          10
(PID.TID 0000.0001)   Seconds in section "MOM_CORRECTION_STEP [FORWARD_STEP]":
(PID.TID 0000.0001)           User time:  7.99999999999991829E-002
(PID.TID 0000.0001)         System time:   0.0000000000000000
(PID.TID 0000.0001)     Wall clock time:  7.93478488922119141E-002
(PID.TID 0000.0001)          No. starts:          10
(PID.TID 0000.0001)           No. stops:          10
(PID.TID 0000.0001)   Seconds in section "INTEGR_CONTINUITY   [FORWARD_STEP]":
(PID.TID 0000.0001)           User time:  0.10999999999999854
(PID.TID 0000.0001)         System time:   0.0000000000000000
(PID.TID 0000.0001)     Wall clock time:  0.11034703254699707
(PID.TID 0000.0001)          No. starts:          10
(PID.TID 0000.0001)           No. stops:          10
(PID.TID 0000.0001)   Seconds in section "CALC_R_STAR         [FORWARD_STEP]":
(PID.TID 0000.0001)           User time:  3.00000000000002487E-002
(PID.TID 0000.0001)         System time:   0.0000000000000000
(PID.TID 0000.0001)     Wall clock time:  2.52950191497802734E-002
(PID.TID 0000.0001)          No. starts:          10
(PID.TID 0000.0001)           No. stops:          10
(PID.TID 0000.0001)   Seconds in section "BLOCKING_EXCHANGES  [FORWARD_STEP]":
(PID.TID 0000.0001)           User time:  1.99999999999995737E-002
(PID.TID 0000.0001)         System time:   0.0000000000000000
(PID.TID 0000.0001)     Wall clock time:  3.47330570220947266E-002
(PID.TID 0000.0001)          No. starts:          20
(PID.TID 0000.0001)           No. stops:          20
(PID.TID 0000.0001)   Seconds in section "THERMODYNAMICS      [FORWARD_STEP]":
(PID.TID 0000.0001)           User time:   1.2500000000000000
(PID.TID 0000.0001)         System time:   0.0000000000000000
(PID.TID 0000.0001)     Wall clock time:   1.2406508922576904
(PID.TID 0000.0001)          No. starts:          10
(PID.TID 0000.0001)           No. stops:          10
(PID.TID 0000.0001)   Seconds in section "TRC_CORRECTION_STEP [FORWARD_STEP]":
(PID.TID 0000.0001)           User time:   0.0000000000000000
(PID.TID 0000.0001)         System time:   0.0000000000000000
(PID.TID 0000.0001)     Wall clock time:  1.03950500488281250E-004
(PID.TID 0000.0001)          No. starts:          10
(PID.TID 0000.0001)           No. stops:          10
(PID.TID 0000.0001)   Seconds in section "MONITOR             [FORWARD_STEP]":
(PID.TID 0000.0001)           User time:  0.50000000000000000
(PID.TID 0000.0001)         System time:   0.0000000000000000
(PID.TID 0000.0001)     Wall clock time:  0.50362324714660645
(PID.TID 0000.0001)          No. starts:          10
(PID.TID 0000.0001)           No. stops:          10
(PID.TID 0000.0001)   Seconds in section "DO_THE_MODEL_IO     [FORWARD_STEP]":
(PID.TID 0000.0001)           User time:  7.00000000000011724E-002
(PID.TID 0000.0001)         System time:   0.0000000000000000
(PID.TID 0000.0001)     Wall clock time:  7.52320289611816406E-002
(PID.TID 0000.0001)          No. starts:          10
(PID.TID 0000.0001)           No. stops:          10
(PID.TID 0000.0001)   Seconds in section "PTRACERS_RESET      [FORWARD_STEP]":
(PID.TID 0000.0001)           User time:   0.0000000000000000
(PID.TID 0000.0001)         System time:   0.0000000000000000
(PID.TID 0000.0001)     Wall clock time:  1.03712081909179688E-004
(PID.TID 0000.0001)          No. starts:          10
(PID.TID 0000.0001)           No. stops:          10
(PID.TID 0000.0001)   Seconds in section "DO_WRITE_PICKUP     [FORWARD_STEP]":
(PID.TID 0000.0001)           User time:  1.99999999999995737E-002
(PID.TID 0000.0001)         System time:  9.99999999999999847E-003
(PID.TID 0000.0001)     Wall clock time:  2.20098495483398438E-002
(PID.TID 0000.0001)          No. starts:          10
(PID.TID 0000.0001)           No. stops:          10
(PID.TID 0000.0001) // ======================================================
(PID.TID 0000.0001) // Tile <-> Tile communication statistics
(PID.TID 0000.0001) // ======================================================
(PID.TID 0000.0001) // o Tile number: 000001
(PID.TID 0000.0001) //         No. X exchanges =              0
(PID.TID 0000.0001) //            Max. X spins =              0
(PID.TID 0000.0001) //            Min. X spins =     1000000000
(PID.TID 0000.0001) //          Total. X spins =              0
(PID.TID 0000.0001) //            Avg. X spins =       0.00E+00
(PID.TID 0000.0001) //         No. Y exchanges =              0
(PID.TID 0000.0001) //            Max. Y spins =              0
(PID.TID 0000.0001) //            Min. Y spins =     1000000000
(PID.TID 0000.0001) //          Total. Y spins =              0
(PID.TID 0000.0001) //            Avg. Y spins =       0.00E+00
(PID.TID 0000.0001) // o Tile number: 000002
(PID.TID 0000.0001) //         No. X exchanges =              0
(PID.TID 0000.0001) //            Max. X spins =              0
(PID.TID 0000.0001) //            Min. X spins =     1000000000
(PID.TID 0000.0001) //          Total. X spins =              0
(PID.TID 0000.0001) //            Avg. X spins =       0.00E+00
(PID.TID 0000.0001) //         No. Y exchanges =              0
(PID.TID 0000.0001) //            Max. Y spins =              0
(PID.TID 0000.0001) //            Min. Y spins =     1000000000
(PID.TID 0000.0001) //          Total. Y spins =              0
(PID.TID 0000.0001) //            Avg. Y spins =       0.00E+00
(PID.TID 0000.0001) // o Tile number: 000003
(PID.TID 0000.0001) //         No. X exchanges =              0
(PID.TID 0000.0001) //            Max. X spins =              0
(PID.TID 0000.0001) //            Min. X spins =     1000000000
(PID.TID 0000.0001) //          Total. X spins =              0
(PID.TID 0000.0001) //            Avg. X spins =       0.00E+00
(PID.TID 0000.0001) //         No. Y exchanges =              0
(PID.TID 0000.0001) //            Max. Y spins =              0
(PID.TID 0000.0001) //            Min. Y spins =     1000000000
(PID.TID 0000.0001) //          Total. Y spins =              0
(PID.TID 0000.0001) //            Avg. Y spins =       0.00E+00
(PID.TID 0000.0001) // o Tile number: 000004
(PID.TID 0000.0001) //         No. X exchanges =              0
(PID.TID 0000.0001) //            Max. X spins =              0
(PID.TID 0000.0001) //            Min. X spins =     1000000000
(PID.TID 0000.0001) //          Total. X spins =              0
(PID.TID 0000.0001) //            Avg. X spins =       0.00E+00
(PID.TID 0000.0001) //         No. Y exchanges =              0
(PID.TID 0000.0001) //            Max. Y spins =              0
(PID.TID 0000.0001) //            Min. Y spins =     1000000000
(PID.TID 0000.0001) //          Total. Y spins =              0
(PID.TID 0000.0001) //            Avg. Y spins =       0.00E+00
(PID.TID 0000.0001) // o Thread number: 000001
(PID.TID 0000.0001) //            No. barriers =          14294
(PID.TID 0000.0001) //      Max. barrier spins =              1
(PID.TID 0000.0001) //      Min. barrier spins =              1
(PID.TID 0000.0001) //     Total barrier spins =          14294
(PID.TID 0000.0001) //      Avg. barrier spins =       1.00E+00
PROGRAM MAIN: Execution ended Normally
