(PID.TID 0000.0001) 
(PID.TID 0000.0001) // ======================================================
(PID.TID 0000.0001) //                      MITgcm UV
(PID.TID 0000.0001) //                      =========
(PID.TID 0000.0001) // ======================================================
(PID.TID 0000.0001) // execution environment starting up...
(PID.TID 0000.0001) 
(PID.TID 0000.0001) // MITgcmUV version:  checkpoint65
(PID.TID 0000.0001) // Build user:        jmc
(PID.TID 0000.0001) // Build host:        baudelaire
(PID.TID 0000.0001) // Build date:        Sat Jul 19 12:57:11 EDT 2014
(PID.TID 0000.0001) 
(PID.TID 0000.0001) // =======================================================
(PID.TID 0000.0001) // Execution Environment parameter file "eedata"
(PID.TID 0000.0001) // =======================================================
(PID.TID 0000.0001) ># Example "eedata" file
(PID.TID 0000.0001) ># Lines beginning "#" are comments
(PID.TID 0000.0001) ># nTx - No. threads per process in X
(PID.TID 0000.0001) ># nTy - No. threads per process in Y
(PID.TID 0000.0001) > &EEPARMS
(PID.TID 0000.0001) > useCubedSphereExchange=.TRUE.,
(PID.TID 0000.0001) ># Activate one line below to support 2, 3 or 6 way multi-threading
(PID.TID 0000.0001) >#nTx=2,
(PID.TID 0000.0001) >#nTx=3,
(PID.TID 0000.0001) >#nTx=6,
(PID.TID 0000.0001) > /
(PID.TID 0000.0001) ># Note: Some systems use & as the
(PID.TID 0000.0001) ># namelist terminator. Other systems
(PID.TID 0000.0001) ># use a / character (as shown here).
(PID.TID 0000.0001) 
(PID.TID 0000.0001) // =======================================================
(PID.TID 0000.0001) // Computational Grid Specification ( see files "SIZE.h" )
(PID.TID 0000.0001) //                                  ( and "eedata"       )
(PID.TID 0000.0001) // =======================================================
(PID.TID 0000.0001)      nPx =    1 ; /* No. processes in X */
(PID.TID 0000.0001)      nPy =    1 ; /* No. processes in Y */
(PID.TID 0000.0001)      nSx =    6 ; /* No. tiles in X per process */
(PID.TID 0000.0001)      nSy =    1 ; /* No. tiles in Y per process */
(PID.TID 0000.0001)      sNx =   32 ; /* Tile size in X */
(PID.TID 0000.0001)      sNy =   32 ; /* Tile size in Y */
(PID.TID 0000.0001)      OLx =    2 ; /* Tile overlap distance in X */
(PID.TID 0000.0001)      OLy =    2 ; /* Tile overlap distance in Y */
(PID.TID 0000.0001)      nTx =    1 ; /* No. threads in X per process */
(PID.TID 0000.0001)      nTy =    1 ; /* No. threads in Y per process */
(PID.TID 0000.0001)       Nr =   40 ; /* No. levels in the vertical   */
(PID.TID 0000.0001)       Nx =  192 ; /* Total domain size in X ( = nPx*nSx*sNx ) */
(PID.TID 0000.0001)       Ny =   32 ; /* Total domain size in Y ( = nPy*nSy*sNy ) */
(PID.TID 0000.0001)   nTiles =    6 ; /* Total no. tiles per process ( = nSx*nSy ) */
(PID.TID 0000.0001)   nProcs =    1 ; /* Total no. processes ( = nPx*nPy ) */
(PID.TID 0000.0001) nThreads =    1 ; /* Total no. threads per process ( = nTx*nTy ) */
(PID.TID 0000.0001) usingMPI =    F ; /* Flag used to control whether MPI is in use */
(PID.TID 0000.0001)                   /*  note: To execute a program with MPI calls */
(PID.TID 0000.0001)                   /*  it must be launched appropriately e.g     */
(PID.TID 0000.0001)                   /*  "mpirun -np 64 ......"                    */
(PID.TID 0000.0001) useCoupler=    F ;/* Flag used to control communications with   */
(PID.TID 0000.0001)                   /*  other model components, through a coupler */
(PID.TID 0000.0001) debugMode =    F ; /* print debug msg. (sequence of S/R calls)  */
(PID.TID 0000.0001) printMapIncludesZeros=    F ; /* print zeros in Std.Output maps */
(PID.TID 0000.0001) maxLengthPrt1D=   65 /* maxLength of 1D array printed to StdOut */
(PID.TID 0000.0001) 
(PID.TID 0000.0001) // ======================================================
(PID.TID 0000.0001) // Mapping of tiles to threads
(PID.TID 0000.0001) // ======================================================
(PID.TID 0000.0001) // -o- Thread   1, tiles (   1:   6,   1:   1)
(PID.TID 0000.0001) 
(PID.TID 0000.0001) W2_READPARMS: file data.exch2 not found
(PID.TID 0000.0001) => use W2_EXCH2 default: regular 6-facets Cube
(PID.TID 0000.0001) W2_useE2ioLayOut=    T ;/* T: use Exch2 glob IO map; F: use model default */
(PID.TID 0000.0001) W2_mapIO        =  -1 ; /* select option for Exch2 global-IO map */
(PID.TID 0000.0001) W2_printMsg     =  -1 ; /* select option for printing information */
(PID.TID 0000.0001) ===== Start setting W2 TOPOLOGY:
(PID.TID 0000.0001)  write to log-file: w2_tile_topology.0000.log
(PID.TID 0000.0001) =====       setting W2 TOPOLOGY: Done
(PID.TID 0000.0001) 
(PID.TID 0000.0001)  INI_PARMS: opening model parameter file "data"
(PID.TID 0000.0001)  OPEN_COPY_DATA_FILE: opening file data
(PID.TID 0000.0001) // =======================================================
(PID.TID 0000.0001) // Parameter file "data"
(PID.TID 0000.0001) // =======================================================
(PID.TID 0000.0001) ># ====================
(PID.TID 0000.0001) ># | Model parameters |
(PID.TID 0000.0001) ># ====================
(PID.TID 0000.0001) >#
(PID.TID 0000.0001) ># Continuous equation parameters
(PID.TID 0000.0001) > &PARM01
(PID.TID 0000.0001) > tRef=295.1, 295.3, 295.4, 295.6, 295.8, 296.0, 296.2, 296.4, 296.6, 296.8,
(PID.TID 0000.0001) >      297.0, 297.3, 297.5, 297.7, 298.0, 298.3, 298.5, 298.8, 299.1, 299.5,
(PID.TID 0000.0001) >      299.8, 300.1, 300.5, 300.9, 301.5, 302.3, 303.4, 304.9, 306.8, 309.4,
(PID.TID 0000.0001) >      312.9, 317.8, 324.7, 336.1, 352.6, 373.4, 401.2, 441.6, 511.0, 699.5,
(PID.TID 0000.0001) >#tRef=295.2, 295.5, 295.9, 296.3, 296.7, 297.1, 297.6, 298.1, 298.7, 299.3,
(PID.TID 0000.0001) >#     300.0, 300.7, 301.9, 304.1, 308.0, 315.1, 329.5, 362.3, 419.2, 573.8,
(PID.TID 0000.0001) >#tRef=295.3, 296.1, 296.9, 297.9, 299.0, 300.3, 302.8, 311.0, 343.9, 470.7,
(PID.TID 0000.0001) > sRef=40*0.0,
(PID.TID 0000.0001) >#sRef=1.0E-3,5.0E-4,1.E-4,5*1.E-6,1.E-8,1.E-9,
(PID.TID 0000.0001) > viscAr=0.E1,
(PID.TID 0000.0001) > viscAh=0.E6,
(PID.TID 0000.0001) > viscA4=0.E17,
(PID.TID 0000.0001) > no_slip_sides=.FALSE.,
(PID.TID 0000.0001) > no_slip_bottom=.FALSE.,
(PID.TID 0000.0001) > diffKhT=0.E3,
(PID.TID 0000.0001) > diffKrT=0.,
(PID.TID 0000.0001) > diffK4T=0.E17,
(PID.TID 0000.0001) > diffKrS=0.E2,
(PID.TID 0000.0001) > diffKhS=0.E3,
(PID.TID 0000.0001) > diffK4S=0.E17,
(PID.TID 0000.0001) > buoyancyRelation='ATMOSPHERIC',
(PID.TID 0000.0001) > eosType='IDEALG',
(PID.TID 0000.0001) > atm_Rq=0.6078,
(PID.TID 0000.0001) >#Integr_GeoPot=2,
(PID.TID 0000.0001) > gravity=9.81,
(PID.TID 0000.0001) > implicitFreeSurface=.TRUE.,
(PID.TID 0000.0001) > exactConserv=.TRUE.,
(PID.TID 0000.0001) > uniformLin_PhiSurf=.FALSE.,
(PID.TID 0000.0001) > staggerTimeStep=.TRUE.,
(PID.TID 0000.0001) > readBinaryPrec=64,
(PID.TID 0000.0001) > writeBinaryPrec=64,
(PID.TID 0000.0001) > hFacMin=0.5,
(PID.TID 0000.0001) > nonlinFreeSurf=4,
(PID.TID 0000.0001) > select_rStar=2,
(PID.TID 0000.0001) > saltAdvScheme=2,
(PID.TID 0000.0001) > vectorInvariantMomentum=.TRUE.,
(PID.TID 0000.0001) >#- here are the new things:
(PID.TID 0000.0001) > useAbsVorticity=.TRUE.,
(PID.TID 0000.0001) > SadournyCoriolis=.TRUE.,
(PID.TID 0000.0001) > selectKEscheme=3,
(PID.TID 0000.0001) > /
(PID.TID 0000.0001) >
(PID.TID 0000.0001) ># Elliptic solver parameters
(PID.TID 0000.0001) > &PARM02
(PID.TID 0000.0001) > cg2dMaxIters=200,
(PID.TID 0000.0001) >#cg2dTargetResidual=1.E-12,
(PID.TID 0000.0001) > cg2dTargetResWunit=1.E-17,
(PID.TID 0000.0001) > /
(PID.TID 0000.0001) >
(PID.TID 0000.0001) ># Time stepping parameters
(PID.TID 0000.0001) > &PARM03
(PID.TID 0000.0001) > nIter0=0,
(PID.TID 0000.0001) > nTimeSteps=6,
(PID.TID 0000.0001) >#endTime=864000.0,
(PID.TID 0000.0001) > deltaT=120.0,
(PID.TID 0000.0001) > forcing_In_AB=.FALSE.,
(PID.TID 0000.0001) > abEps=0.1,
(PID.TID 0000.0001) > cAdjFreq=0.,
(PID.TID 0000.0001) > pChkptFreq=0.0,
(PID.TID 0000.0001) > ChkptFreq=0.0,
(PID.TID 0000.0001) > dumpFreq=0.0,
(PID.TID 0000.0001) > dumpInitAndLast=.FALSE.,
(PID.TID 0000.0001) > monitorFreq=120.,
(PID.TID 0000.0001) > taveFreq=0.0,
(PID.TID 0000.0001) > tave_lastiter=1.,
(PID.TID 0000.0001) ># for daily testing: to save disk space
(PID.TID 0000.0001) > writePickupAtEnd=.FALSE.,
(PID.TID 0000.0001) > /
(PID.TID 0000.0001) >
(PID.TID 0000.0001) ># Gridding parameters
(PID.TID 0000.0001) > &PARM04
(PID.TID 0000.0001) > usingCurvilinearGrid=.TRUE.,
(PID.TID 0000.0001) > horizGridFile='dxC1_dXYa',
(PID.TID 0000.0001) > radius_fromHorizGrid=6370.E3,
(PID.TID 0000.0001) >#delR=40*25.325E2,
(PID.TID 0000.0001) >#Ro_SeaLevel=1013.E2,
(PID.TID 0000.0001) > delR=40*25.E2,
(PID.TID 0000.0001) > Ro_SeaLevel=1.E5,
(PID.TID 0000.0001) > /
(PID.TID 0000.0001) >
(PID.TID 0000.0001) ># Input datasets
(PID.TID 0000.0001) > &PARM05
(PID.TID 0000.0001) > topoFile='top19232.data',
(PID.TID 0000.0001) > uVelInitFile='uVel_cs2-32x40.d19930110z06.bin',
(PID.TID 0000.0001) > vVelInitFile='vVel_cs2-32x40.d19930110z06.bin',
(PID.TID 0000.0001) > hydrogThetaFile='TH_cs2-32x40.d19930110z06.bin',
(PID.TID 0000.0001) > hydrogSaltFile='SHwet_cs32x40.d19930110z06.bin',
(PID.TID 0000.0001) > /
(PID.TID 0000.0001) 
(PID.TID 0000.0001)  INI_PARMS ; starts to read PARM01
(PID.TID 0000.0001)  INI_PARMS ; read PARM01 : OK
(PID.TID 0000.0001)  INI_PARMS ; starts to read PARM02
(PID.TID 0000.0001)  INI_PARMS ; read PARM02 : OK
(PID.TID 0000.0001)  INI_PARMS ; starts to read PARM03
(PID.TID 0000.0001)  INI_PARMS ; read PARM03 : OK
(PID.TID 0000.0001)  INI_PARMS ; starts to read PARM04
(PID.TID 0000.0001)  INI_PARMS ; read PARM04 : OK
(PID.TID 0000.0001)  INI_PARMS ; starts to read PARM05
(PID.TID 0000.0001)  INI_PARMS ; read PARM05 : OK
(PID.TID 0000.0001)  INI_PARMS: finished reading file "data"
(PID.TID 0000.0001)  PACKAGES_BOOT: opening data.pkg
(PID.TID 0000.0001)  OPEN_COPY_DATA_FILE: opening file data.pkg
(PID.TID 0000.0001) // =======================================================
(PID.TID 0000.0001) // Parameter file "data.pkg"
(PID.TID 0000.0001) // =======================================================
(PID.TID 0000.0001) ># Packages
(PID.TID 0000.0001) > &PACKAGES
(PID.TID 0000.0001) > useFizhi=.TRUE.,
(PID.TID 0000.0001) > useGridAlt=.TRUE.,
(PID.TID 0000.0001) > useSHAP_FILT=.TRUE.,
(PID.TID 0000.0001) > useDiagnostics=.TRUE.,
(PID.TID 0000.0001) > /
(PID.TID 0000.0001) 
(PID.TID 0000.0001)  PACKAGES_BOOT: finished reading data.pkg
(PID.TID 0000.0001)  PACKAGES_BOOT: On/Off package Summary
 --------  pkgs with a standard "usePKG" On/Off switch in "data.pkg":  --------
 pkg/shap_filt            compiled   and   used ( useSHAP_FILT             = T )
 pkg/fizhi                compiled   and   used ( useFizhi                 = T )
 pkg/gridalt              compiled   and   used ( useGridAlt               = T )
 pkg/diagnostics          compiled   and   used ( useDiagnostics           = T )
 -------- pkgs without standard "usePKG" On/Off switch in "data.pkg":  --------
 pkg/generic_advdiff      compiled   and   used ( useGAD                   = T )
 pkg/mom_common           compiled   and   used ( momStepping              = T )
 pkg/mom_vecinv           compiled   and   used ( +vectorInvariantMomentum = T )
 pkg/monitor              compiled   and   used ( monitorFreq > 0.         = T )
 pkg/timeave              compiled but not used ( taveFreq > 0.            = F )
 pkg/debug                compiled but not used ( debugMode                = F )
 pkg/exch2                compiled   and   used
 pkg/rw                   compiled   and   used
 pkg/mdsio                compiled   and   used
 pkg/atm_common           compiled   ( used ? )
(PID.TID 0000.0001)  PACKAGES_BOOT: End of package Summary
(PID.TID 0000.0001) 
(PID.TID 0000.0001)  SHAP_FILT_READPARMS: opening data.shap
(PID.TID 0000.0001)  OPEN_COPY_DATA_FILE: opening file data.shap
(PID.TID 0000.0001) // =======================================================
(PID.TID 0000.0001) // Parameter file "data.shap"
(PID.TID 0000.0001) // =======================================================
(PID.TID 0000.0001) ># Shapiro Filter parameters
(PID.TID 0000.0001) > &SHAP_PARM01
(PID.TID 0000.0001) > shap_filt_uvStar=.FALSE.,
(PID.TID 0000.0001) > shap_filt_TrStagg=.TRUE.,
(PID.TID 0000.0001) > Shap_funct=2,
(PID.TID 0000.0001) > nShapT=4,
(PID.TID 0000.0001) > nShapUV=4,
(PID.TID 0000.0001) > nShapTrPhys=0,
(PID.TID 0000.0001) > nShapUVPhys=0,
(PID.TID 0000.0001) >#Shap_TrLength=115000.,
(PID.TID 0000.0001) >#Shap_uvLength=110000.,
(PID.TID 0000.0001) > Shap_Trtau=5400.,
(PID.TID 0000.0001) > Shap_uvtau=1800.,
(PID.TID 0000.0001) > /
(PID.TID 0000.0001) 
(PID.TID 0000.0001)  SHAP_FILT_READPARMS: finished reading data.shap
(PID.TID 0000.0001) Shap_funct =   /* select Shapiro filter function */
(PID.TID 0000.0001)                       2
(PID.TID 0000.0001)     ;
(PID.TID 0000.0001) nShapT =   /* power of Shapiro filter for Temperat */
(PID.TID 0000.0001)                       4
(PID.TID 0000.0001)     ;
(PID.TID 0000.0001) nShapS =   /* power of Shapiro filter for Salinity */
(PID.TID 0000.0001)                       4
(PID.TID 0000.0001)     ;
(PID.TID 0000.0001) nShapUV =   /* power of Shapiro filter for momentum */
(PID.TID 0000.0001)                       4
(PID.TID 0000.0001)     ;
(PID.TID 0000.0001) shap_filt_uvStar = /* apply filter before Press. Solver */
(PID.TID 0000.0001)                   F
(PID.TID 0000.0001)     ;
(PID.TID 0000.0001) shap_filt_TrStagg = /* filter T,S before calc PhiHyd (staggerTimeStep) */
(PID.TID 0000.0001)                   T
(PID.TID 0000.0001)     ;
(PID.TID 0000.0001) Shap_alwaysExchUV = /* always exch(U,V)    nShapUV times*/
(PID.TID 0000.0001)                   F
(PID.TID 0000.0001)     ;
(PID.TID 0000.0001) Shap_alwaysExchTr = /* always exch(Tracer) nShapTr times*/
(PID.TID 0000.0001)                   F
(PID.TID 0000.0001)     ;
(PID.TID 0000.0001) nShapTrPhys =   /* power of physical-space filter (Tracer) */
(PID.TID 0000.0001)                       0
(PID.TID 0000.0001)     ;
(PID.TID 0000.0001) nShapUVPhys =   /* power of physical-space filter (Momentum) */
(PID.TID 0000.0001)                       0
(PID.TID 0000.0001)     ;
(PID.TID 0000.0001) Shap_Trtau =   /* time scale of Shapiro filter (Tracer) */
(PID.TID 0000.0001)                 5.400000000000000E+03
(PID.TID 0000.0001)     ;
(PID.TID 0000.0001) Shap_TrLength =   /* Length scale of Shapiro filter (Tracer) */
(PID.TID 0000.0001)                 0.000000000000000E+00
(PID.TID 0000.0001)     ;
(PID.TID 0000.0001) Shap_uvtau =   /* time scale of Shapiro filter (Momentum) */
(PID.TID 0000.0001)                 1.800000000000000E+03
(PID.TID 0000.0001)     ;
(PID.TID 0000.0001) Shap_uvLength =   /* Length scale of Shapiro filter (Momentum) */
(PID.TID 0000.0001)                 0.000000000000000E+00
(PID.TID 0000.0001)     ;
(PID.TID 0000.0001) Shap_noSlip =  /* No-slip parameter (0=Free-slip ; 1=No-slip)*/
(PID.TID 0000.0001)                 0.000000000000000E+00
(PID.TID 0000.0001)     ;
(PID.TID 0000.0001) Shap_diagFreq =   /* Frequency^-1 for diagnostic output (s)*/
(PID.TID 0000.0001)                 0.000000000000000E+00
(PID.TID 0000.0001)     ;
(PID.TID 0000.0001)  FIZHI_READPARMS: opening data.fizhi
(PID.TID 0000.0001)  OPEN_COPY_DATA_FILE: opening file data.fizhi
(PID.TID 0000.0001) // =======================================================
(PID.TID 0000.0001) // Parameter file "data.fizhi"
(PID.TID 0000.0001) // =======================================================
(PID.TID 0000.0001) ># Fizhi Parameters
(PID.TID 0000.0001) > &fizhi_list
(PID.TID 0000.0001) > nhmsbegin=060000,
(PID.TID 0000.0001) > nymdbegin=19930110,
(PID.TID 0000.0001) > runlength=0.003,
(PID.TID 0000.0001) > climsst=.TRUE.,
(PID.TID 0000.0001) > /
(PID.TID 0000.0001) 
(PID.TID 0000.0001)  CHANGING NUMBER OF MODEL TIMESTEPS TO        15
(PID.TID 0000.0001)  CHANGING END TIME TO     1800.00
   Begin Date     19930110    Begin Time        60000
 Current Date     19930110  Current Time        60000
(PID.TID 0000.0001)  DIAGNOSTICS_READPARMS: opening data.diagnostics
(PID.TID 0000.0001)  OPEN_COPY_DATA_FILE: opening file data.diagnostics
(PID.TID 0000.0001) // =======================================================
(PID.TID 0000.0001) // Parameter file "data.diagnostics"
(PID.TID 0000.0001) // =======================================================
(PID.TID 0000.0001) ># Diagnostic Package Choices
(PID.TID 0000.0001) >#--------------------
(PID.TID 0000.0001) >#  dumpAtLast (logical): always write output at the end of simulation (default=F)
(PID.TID 0000.0001) >#  diag_mnc   (logical): write to NetCDF files (default=useMNC)
(PID.TID 0000.0001) >#--for each output-stream:
(PID.TID 0000.0001) >#  fileName(n) : prefix of the output file name (max 80c long) for outp.stream n
(PID.TID 0000.0001) >#  frequency(n):< 0 : write snap-shot output every |frequency| seconds
(PID.TID 0000.0001) >#               > 0 : write time-average output every frequency seconds
(PID.TID 0000.0001) >#  timePhase(n)     : write at time = timePhase + multiple of |frequency|
(PID.TID 0000.0001) >#    averagingFreq  : frequency (in s) for periodic averaging interval
(PID.TID 0000.0001) >#    averagingPhase : phase     (in s) for periodic averaging interval
(PID.TID 0000.0001) >#    repeatCycle    : number of averaging intervals in 1 cycle
(PID.TID 0000.0001) >#  levels(:,n) : list of levels to write to file (Notes: declared as REAL)
(PID.TID 0000.0001) >#                when this entry is missing, select all common levels of this list
(PID.TID 0000.0001) >#  fields(:,n) : list of selected diagnostics fields (8.c) in outp.stream n
(PID.TID 0000.0001) >#                (see "available_diagnostics.log" file for the full list of diags)
(PID.TID 0000.0001) >#  missing_value(n) : missing value for real-type fields in output file "n"
(PID.TID 0000.0001) >#  fileFlags(n)     : specific code (8c string) for output file "n"
(PID.TID 0000.0001) >#--------------------
(PID.TID 0000.0001) > &DIAGNOSTICS_LIST
(PID.TID 0000.0001) >  fields(1:2,1) = 'TCANOPY ','RSURF   ',
(PID.TID 0000.0001) >   levels(1,1) = 1.,
(PID.TID 0000.0001) >   fileName(1) = 'surface',
(PID.TID 0000.0001) >  frequency(1) = 0.003,
(PID.TID 0000.0001) > /
(PID.TID 0000.0001) >
(PID.TID 0000.0001) >#--------------------
(PID.TID 0000.0001) ># Parameter for Diagnostics of per level statistics:
(PID.TID 0000.0001) >#--------------------
(PID.TID 0000.0001) >#  diagSt_mnc (logical): write stat-diags to NetCDF files (default=diag_mnc)
(PID.TID 0000.0001) >#  diagSt_regMaskFile : file containing the region-mask to read-in
(PID.TID 0000.0001) >#  nSetRegMskFile   : number of region-mask sets within the region-mask file
(PID.TID 0000.0001) >#  set_regMask(i)   : region-mask set-index that identifies the region "i"
(PID.TID 0000.0001) >#  val_regMask(i)   : region "i" identifier value in the region mask
(PID.TID 0000.0001) >#--for each output-stream:
(PID.TID 0000.0001) >#  stat_fName(n) : prefix of the output file name (max 80c long) for outp.stream n
(PID.TID 0000.0001) >#  stat_freq(n):< 0 : write snap-shot output every |stat_freq| seconds
(PID.TID 0000.0001) >#               > 0 : write time-average output every stat_freq seconds
(PID.TID 0000.0001) >#  stat_phase(n)    : write at time = stat_phase + multiple of |stat_freq|
(PID.TID 0000.0001) >#  stat_region(:,n) : list of "regions" (default: 1 region only=global)
(PID.TID 0000.0001) >#  stat_fields(:,n) : list of selected diagnostics fields (8.c) in outp.stream n
(PID.TID 0000.0001) >#                (see "available_diagnostics.log" file for the full list of diags)
(PID.TID 0000.0001) >#--------------------
(PID.TID 0000.0001) > &DIAG_STATIS_PARMS
(PID.TID 0000.0001) > stat_fields(1:20,1) = 'UVEL    ','VVEL    ','WVEL    ','THETA   ',
(PID.TID 0000.0001) >                       'UAVE    ','VAVE    ','TAVE    ','TURBU   ',
(PID.TID 0000.0001) >                       'GWDU    ','GWDV    ','RFU     ','RFV     ',
(PID.TID 0000.0001) >                       'DIABU   ','DIABUDYN','DIABV   ','DIABVDYN',
(PID.TID 0000.0001) >                       'TENDUFIZ','TENDVFIZ','CORRDU  ','CORRDV  ',
(PID.TID 0000.0001) ># stat_fName(1) = 'dynStDiag',
(PID.TID 0000.0001) >   stat_freq(1) = 0.0002,
(PID.TID 0000.0001) >  stat_phase(1) = 0.,
(PID.TID 0000.0001) > /
(PID.TID 0000.0001) >#- ignore the following since are out of namelist
(PID.TID 0000.0001) >  frequency(1) = 100.0,
(PID.TID 0000.0001) >   levels(1,1) = 1.,
(PID.TID 0000.0001) >   fields(1,1) = 'TCANOPY ','OLR     ','PREACC  ','CLDFRC  ','OSR     ','RADSWT  ',
(PID.TID 0000.0001) >                 'LWGUP   ','RADLWG  ','LWGCLR  ','OSRCLR  ','OLRCLR  ','RADSWG  ',
(PID.TID 0000.0001) >                 'SWGCLR  ','LWGDOWN ','PBL     ','EFLUX   ','HFLUX   ','TPW     ',
(PID.TID 0000.0001) >                 'TGROUND ','TDEEP   ','SMSHAL  ','SNOW    ','RAINLSP ','RAINCON ',
(PID.TID 0000.0001) >                 'ALBNIRDF','ALBNIRDR','PSUBCLD ','RSURF   ',
(PID.TID 0000.0001) >                 'QCANOPY ','SMROOT  ','SMDEEP  ','CAPACITY','PRECON  ','EVAP    ',
(PID.TID 0000.0001) >                 'GWDUS   ','GWDVS   ','GWDUT   ','GWDVT   ','PS      ',
(PID.TID 0000.0001) >                 'CLDLOW  ','CLDMID  ','CLDHI   ','TAULOW  ','TAUMID  ','TAUHI   ',
(PID.TID 0000.0001) >                 'SLP     ','WINDS   ','CT      ','CU      ','UFLUX   ','VFLUX   ',
(PID.TID 0000.0001) >                 'USTAR   ','Z0      ','U2M     ','V2M     ','T2M     ','Q2M     ',
(PID.TID 0000.0001) >                 'U10M    ','V10M    ','T10M    ','Q10M    ','SNOWFALL','RUNOFF  ',
(PID.TID 0000.0001) >                 'ALBEDO  ','ALBVISDF','ALBVISDR','PLALBEDO',
(PID.TID 0000.0001) >   fileName(1) = 'surface',
(PID.TID 0000.0001) >  frequency(2) = 100.0,
(PID.TID 0000.0001) >  fileFlags(2) = ' P1     ',
(PID.TID 0000.0001) >   levels(1,2) =  100000.0, 97500.0, 95000.0, 92500.0, 90000.0, 85000.0, 80000.0,
(PID.TID 0000.0001) >                   70000.0, 60000.0, 50000.0, 40000.0, 30000.0, 25000.0, 20000.0,
(PID.TID 0000.0001) >                   15000.0, 10000.0, 7000.0,  5000.0,  3000.0,  2000.0,
(PID.TID 0000.0001) >   fields(1,2) = 'TURBT   ','TURBQ   ','MOISTT  ','MOISTQ  ','TURBU   ','TURBV   ',
(PID.TID 0000.0001) >                 'RADLW   ','RADSW   ','GWDU    ','GWDV    ','GWDT    ','CLDLSP  ',
(PID.TID 0000.0001) >                 'CLDRAS  ','CLDTOT  ','CLDNP   ','TAUCLD  ','CLDMAS  ','FIZPRES ',
(PID.TID 0000.0001) >                 'MOISTU  ','MOISTV  ','KM      ','KH      ','RFT     ','TKE     ',
(PID.TID 0000.0001) >                 'RFU     ','RFV     ','DTRAIN  ','QFILL   ','TRBFCC  ','DIABU   ',
(PID.TID 0000.0001) >                 'DIABV   ','DIABT   ','DIABQ   ','TENDUFIZ','TENDVFIZ','TENDTFIZ',
(PID.TID 0000.0001) >                 'TENDQFIZ','CORRDU  ','CORRDV  ','CORRDT  ','CORRDQ  ',
(PID.TID 0000.0001) >   fileName(2) = 'upperfiz',
(PID.TID 0000.0001) >  frequency(3) = 100.0,
(PID.TID 0000.0001) >   fields(1,3) = 'UVEL    ',
(PID.TID 0000.0001) >   fileName(3) = 'uVeltave',
(PID.TID 0000.0001) >  frequency(4) = 100.0,
(PID.TID 0000.0001) >   fields(1,4) = 'VVEL    ',
(PID.TID 0000.0001) >   fileName(4) = 'vVeltave',
(PID.TID 0000.0001) >  frequency(5) = 100.0,
(PID.TID 0000.0001) >   fields(1,5) = 'THETA   ',
(PID.TID 0000.0001) >   fileName(5) = 'Ttave',
(PID.TID 0000.0001) >  frequency(6) = 100.0,
(PID.TID 0000.0001) >   fields(1,6) = 'SALT    ',
(PID.TID 0000.0001) >   fileName(6) = 'Stave',
(PID.TID 0000.0001) >  frequency(7) = 100.0,
(PID.TID 0000.0001) >   fields(1,7) = 'PHIHYD  ',
(PID.TID 0000.0001) >   fileName(7) = 'phitave',
(PID.TID 0000.0001) >  frequency(8) = 100.0,
(PID.TID 0000.0001) >   fields(1,8) = 'DIABTDYN','DIABQDYN','DIABUDYN','DIABVDYN','RCENTER ','RELHUM  ',
(PID.TID 0000.0001) >                 'SALTFILL','TOTUTEND','TOTVTEND','TOTTTEND','TOTSTEND',
(PID.TID 0000.0001) >   fileName(8) = 'tendsdyn',
(PID.TID 0000.0001) >  frequency(9) = 100.0,
(PID.TID 0000.0001) >   fields(1,9) = 'UVELSQ  ','VVELSQ  ','THETASQ ','WVELSQ  ','PHIHYDSQ','SALTSQ  ',
(PID.TID 0000.0001) >                 'UV_VEL_C','WU_VEL  ','WV_VEL  ','UTHMASS ','VTHMASS ','WTHMASS ',
(PID.TID 0000.0001) >                 'USLTMASS','VSLTMASS','WSLTMASS',
(PID.TID 0000.0001) >   fileName(9) = 'secmoms',
(PID.TID 0000.0001) 
(PID.TID 0000.0001) S/R DIAGNOSTICS_READPARMS, read namelist "diagnostics_list": start
(PID.TID 0000.0001) S/R DIAGNOSTICS_READPARMS, read namelist "diagnostics_list": OK
(PID.TID 0000.0001) S/R DIAGNOSTICS_READPARMS, read namelist "DIAG_STATIS_PARMS": start
(PID.TID 0000.0001) S/R DIAGNOSTICS_READPARMS, read namelist "DIAG_STATIS_PARMS": OK
(PID.TID 0000.0001)  DIAGNOSTICS_READPARMS: global parameter summary:
(PID.TID 0000.0001)  dumpAtLast = /* always write time-ave diags at the end */
(PID.TID 0000.0001)                   F
(PID.TID 0000.0001)     ;
(PID.TID 0000.0001)  diag_mnc =   /* write NetCDF output files */
(PID.TID 0000.0001)                   F
(PID.TID 0000.0001)     ;
(PID.TID 0000.0001)  useMissingValue = /* put MissingValue where mask = 0 */
(PID.TID 0000.0001)                   F
(PID.TID 0000.0001)     ;
(PID.TID 0000.0001)  diagCG_maxIters = /* max number of iters in diag_cg2d */
(PID.TID 0000.0001)                     200
(PID.TID 0000.0001)     ;
(PID.TID 0000.0001)  diagCG_resTarget = /* residual target for diag_cg2d */
(PID.TID 0000.0001)                 1.000000000000000E-07
(PID.TID 0000.0001)     ;
(PID.TID 0000.0001) -----------------------------------------------------
(PID.TID 0000.0001)  DIAGNOSTICS_READPARMS: active diagnostics summary:
(PID.TID 0000.0001) -----------------------------------------------------
(PID.TID 0000.0001) Creating Output Stream: surface
(PID.TID 0000.0001) Output Frequency:          0.003000 ; Phase:           0.000000
(PID.TID 0000.0001)  Averaging Freq.:          0.003000 , Phase:           0.000000 , Cycle:   1
(PID.TID 0000.0001)  missing value:  1.000000000000E+15
(PID.TID 0000.0001)  Levels:       1.
(PID.TID 0000.0001)  Fields:    TCANOPY  RSURF
(PID.TID 0000.0001) -----------------------------------------------------
(PID.TID 0000.0001)  DIAGNOSTICS_READPARMS: statistics diags. summary:
(PID.TID 0000.0001) -----------------------------------------------------
(PID.TID 0000.0001) 
(PID.TID 0000.0001) SET_PARMS: done
(PID.TID 0000.0001) Enter INI_VERTICAL_GRID: setInterFDr=    T ; setCenterDr=    F
(PID.TID 0000.0001) tile:   1 ; Read from file dxC1_dXYa.face001.bin
(PID.TID 0000.0001)   => xC yC dxF dyF rA xG yG dxV dyU rAz dxC dyC rAw rAs dxG dyG AngleCS AngleSN
(PID.TID 0000.0001) tile:   2 ; Read from file dxC1_dXYa.face002.bin
(PID.TID 0000.0001)   => xC yC dxF dyF rA xG yG dxV dyU rAz dxC dyC rAw rAs dxG dyG AngleCS AngleSN
(PID.TID 0000.0001) tile:   3 ; Read from file dxC1_dXYa.face003.bin
(PID.TID 0000.0001)   => xC yC dxF dyF rA xG yG dxV dyU rAz dxC dyC rAw rAs dxG dyG AngleCS AngleSN
(PID.TID 0000.0001) tile:   4 ; Read from file dxC1_dXYa.face004.bin
(PID.TID 0000.0001)   => xC yC dxF dyF rA xG yG dxV dyU rAz dxC dyC rAw rAs dxG dyG AngleCS AngleSN
(PID.TID 0000.0001) tile:   5 ; Read from file dxC1_dXYa.face005.bin
(PID.TID 0000.0001)   => xC yC dxF dyF rA xG yG dxV dyU rAz dxC dyC rAw rAs dxG dyG AngleCS AngleSN
(PID.TID 0000.0001) tile:   6 ; Read from file dxC1_dXYa.face006.bin
(PID.TID 0000.0001)   => xC yC dxF dyF rA xG yG dxV dyU rAz dxC dyC rAw rAs dxG dyG AngleCS AngleSN
(PID.TID 0000.0001) %MON XC_max                       =   1.7854351589505E+02
(PID.TID 0000.0001) %MON XC_min                       =  -1.7854351589505E+02
(PID.TID 0000.0001) %MON XC_mean                      =  -4.6999441375798E-15
(PID.TID 0000.0001) %MON XC_sd                        =   1.0355545336287E+02
(PID.TID 0000.0001) %MON XG_max                       =   1.8000000000000E+02
(PID.TID 0000.0001) %MON XG_min                       =  -1.7708797161002E+02
(PID.TID 0000.0001) %MON XG_mean                      =   1.8603515625000E+00
(PID.TID 0000.0001) %MON XG_sd                        =   1.0357130300504E+02
(PID.TID 0000.0001) %MON DXC_max                      =   3.2375185836900E+05
(PID.TID 0000.0001) %MON DXC_min                      =   1.1353730006923E+05
(PID.TID 0000.0001) %MON DXC_mean                     =   2.8606102525036E+05
(PID.TID 0000.0001) %MON DXC_sd                       =   3.4020997630307E+04
(PID.TID 0000.0001) %MON DXF_max                      =   3.2369947500827E+05
(PID.TID 0000.0001) %MON DXF_min                      =   1.2020820513318E+05
(PID.TID 0000.0001) %MON DXF_mean                     =   2.8605437324820E+05
(PID.TID 0000.0001) %MON DXF_sd                       =   3.4050524252539E+04
(PID.TID 0000.0001) %MON DXG_max                      =   3.2375195872773E+05
(PID.TID 0000.0001) %MON DXG_min                      =   1.0098378008791E+05
(PID.TID 0000.0001) %MON DXG_mean                     =   2.8603818508931E+05
(PID.TID 0000.0001) %MON DXG_sd                       =   3.4140406908005E+04
(PID.TID 0000.0001) %MON DXV_max                      =   3.2380418162750E+05
(PID.TID 0000.0001) %MON DXV_min                      =   8.0152299824136E+04
(PID.TID 0000.0001) %MON DXV_mean                     =   2.8603970633619E+05
(PID.TID 0000.0001) %MON DXV_sd                       =   3.4145142117723E+04
(PID.TID 0000.0001) %MON YC_max                       =   8.7940663871962E+01
(PID.TID 0000.0001) %MON YC_min                       =  -8.7940663871962E+01
(PID.TID 0000.0001) %MON YC_mean                      =   0.0000000000000E+00
(PID.TID 0000.0001) %MON YC_sd                        =   3.8676242969072E+01
(PID.TID 0000.0001) %MON YG_max                       =   9.0000000000000E+01
(PID.TID 0000.0001) %MON YG_min                       =  -9.0000000000000E+01
(PID.TID 0000.0001) %MON YG_mean                      =  -1.1842378929335E-15
(PID.TID 0000.0001) %MON YG_sd                        =   3.8676895860710E+01
(PID.TID 0000.0001) %MON DYC_max                      =   3.2375185836900E+05
(PID.TID 0000.0001) %MON DYC_min                      =   1.1353730006923E+05
(PID.TID 0000.0001) %MON DYC_mean                     =   2.8606102525036E+05
(PID.TID 0000.0001) %MON DYC_sd                       =   3.4020997630307E+04
(PID.TID 0000.0001) %MON DYF_max                      =   3.2369947500827E+05
(PID.TID 0000.0001) %MON DYF_min                      =   1.2020820513318E+05
(PID.TID 0000.0001) %MON DYF_mean                     =   2.8605437324820E+05
(PID.TID 0000.0001) %MON DYF_sd                       =   3.4050524252539E+04
(PID.TID 0000.0001) %MON DYG_max                      =   3.2375195872773E+05
(PID.TID 0000.0001) %MON DYG_min                      =   1.0098378008791E+05
(PID.TID 0000.0001) %MON DYG_mean                     =   2.8603818508931E+05
(PID.TID 0000.0001) %MON DYG_sd                       =   3.4140406908005E+04
(PID.TID 0000.0001) %MON DYU_max                      =   3.2380418162750E+05
(PID.TID 0000.0001) %MON DYU_min                      =   8.0152299824136E+04
(PID.TID 0000.0001) %MON DYU_mean                     =   2.8603970633619E+05
(PID.TID 0000.0001) %MON DYU_sd                       =   3.4145142117723E+04
(PID.TID 0000.0001) %MON RA_max                       =   1.0474757731659E+11
(PID.TID 0000.0001) %MON RA_min                       =   1.5497867056722E+10
(PID.TID 0000.0001) %MON RA_mean                      =   8.2985711332657E+10
(PID.TID 0000.0001) %MON RA_sd                        =   1.7448591913787E+10
(PID.TID 0000.0001) %MON RAW_max                      =   1.0481529828871E+11
(PID.TID 0000.0001) %MON RAW_min                      =   1.1465425741966E+10
(PID.TID 0000.0001) %MON RAW_mean                     =   8.2985711332657E+10
(PID.TID 0000.0001) %MON RAW_sd                       =   1.7503889570793E+10
(PID.TID 0000.0001) %MON RAS_max                      =   1.0481529828871E+11
(PID.TID 0000.0001) %MON RAS_min                      =   1.1465425741966E+10
(PID.TID 0000.0001) %MON RAS_mean                     =   8.2985711332657E+10
(PID.TID 0000.0001) %MON RAS_sd                       =   1.7503889570793E+10
(PID.TID 0000.0001) %MON RAZ_max                      =   1.0484349334619E+11
(PID.TID 0000.0001) %MON RAZ_min                      =   8.8317900612505E+09
(PID.TID 0000.0001) %MON RAZ_mean                     =   8.2992246709235E+10
(PID.TID 0000.0001) %MON RAZ_sd                       =   1.7482297311044E+10
(PID.TID 0000.0001) %MON AngleCS_max                  =   9.9999994756719E-01
(PID.TID 0000.0001) %MON AngleCS_min                  =  -9.9968286884824E-01
(PID.TID 0000.0001) %MON AngleCS_mean                 =   3.3078922539000E-01
(PID.TID 0000.0001) %MON AngleCS_sd                   =   6.2496278958502E-01
(PID.TID 0000.0001) %MON AngleSN_max                  =   9.9968286884824E-01
(PID.TID 0000.0001) %MON AngleSN_min                  =  -9.9999994756719E-01
(PID.TID 0000.0001) %MON AngleSN_mean                 =  -3.3078922539000E-01
(PID.TID 0000.0001) %MON AngleSN_sd                   =   6.2496278958502E-01
(PID.TID 0000.0001) 
(PID.TID 0000.0001) SET_REF_STATE: PhiRef/g [m] at level Center (integer)
(PID.TID 0000.0001)                      and at level Interface (half-int.) :
(PID.TID 0000.0001)  K=  0.5  ;  r=       100000.0  ;  phiRef/g=        0.000
(PID.TID 0000.0001)  K=  1.0  ;  r=        98750.0  ;  phiRef/g=      108.349
(PID.TID 0000.0001)  K=  1.5  ;  r=        97500.0  ;  phiRef/g=      218.185
(PID.TID 0000.0001)  K=  2.0  ;  r=        96250.0  ;  phiRef/g=      328.021
(PID.TID 0000.0001)  K=  2.5  ;  r=        95000.0  ;  phiRef/g=      439.914
(PID.TID 0000.0001)  K=  3.0  ;  r=        93750.0  ;  phiRef/g=      551.807
(PID.TID 0000.0001)  K=  3.5  ;  r=        92500.0  ;  phiRef/g=      665.852
(PID.TID 0000.0001)  K=  4.0  ;  r=        91250.0  ;  phiRef/g=      779.897
(PID.TID 0000.0001)  K=  4.5  ;  r=        90000.0  ;  phiRef/g=      896.196
(PID.TID 0000.0001)  K=  5.0  ;  r=        88750.0  ;  phiRef/g=     1012.495
(PID.TID 0000.0001)  K=  5.5  ;  r=        87500.0  ;  phiRef/g=     1131.159
(PID.TID 0000.0001)  K=  6.0  ;  r=        86250.0  ;  phiRef/g=     1249.822
(PID.TID 0000.0001)  K=  6.5  ;  r=        85000.0  ;  phiRef/g=     1370.968
(PID.TID 0000.0001)  K=  7.0  ;  r=        83750.0  ;  phiRef/g=     1492.115
(PID.TID 0000.0001)  K=  7.5  ;  r=        82500.0  ;  phiRef/g=     1615.872
(PID.TID 0000.0001)  K=  8.0  ;  r=        81250.0  ;  phiRef/g=     1739.630
(PID.TID 0000.0001)  K=  8.5  ;  r=        80000.0  ;  phiRef/g=     1866.138
(PID.TID 0000.0001)  K=  9.0  ;  r=        78750.0  ;  phiRef/g=     1992.647
(PID.TID 0000.0001)  K=  9.5  ;  r=        77500.0  ;  phiRef/g=     2122.057
(PID.TID 0000.0001)  K= 10.0  ;  r=        76250.0  ;  phiRef/g=     2251.467
(PID.TID 0000.0001)  K= 10.5  ;  r=        75000.0  ;  phiRef/g=     2383.945
(PID.TID 0000.0001)  K= 11.0  ;  r=        73750.0  ;  phiRef/g=     2516.422
(PID.TID 0000.0001)  K= 11.5  ;  r=        72500.0  ;  phiRef/g=     2652.148
(PID.TID 0000.0001)  K= 12.0  ;  r=        71250.0  ;  phiRef/g=     2787.873
(PID.TID 0000.0001)  K= 12.5  ;  r=        70000.0  ;  phiRef/g=     2927.044
(PID.TID 0000.0001)  K= 13.0  ;  r=        68750.0  ;  phiRef/g=     3066.215
(PID.TID 0000.0001)  K= 13.5  ;  r=        67500.0  ;  phiRef/g=     3209.049
(PID.TID 0000.0001)  K= 14.0  ;  r=        66250.0  ;  phiRef/g=     3351.883
(PID.TID 0000.0001)  K= 14.5  ;  r=        65000.0  ;  phiRef/g=     3498.621
(PID.TID 0000.0001)  K= 15.0  ;  r=        63750.0  ;  phiRef/g=     3645.359
(PID.TID 0000.0001)  K= 15.5  ;  r=        62500.0  ;  phiRef/g=     3796.266
(PID.TID 0000.0001)  K= 16.0  ;  r=        61250.0  ;  phiRef/g=     3947.174
(PID.TID 0000.0001)  K= 16.5  ;  r=        60000.0  ;  phiRef/g=     4102.548
(PID.TID 0000.0001)  K= 17.0  ;  r=        58750.0  ;  phiRef/g=     4257.922
(PID.TID 0000.0001)  K= 17.5  ;  r=        57500.0  ;  phiRef/g=     4418.093
(PID.TID 0000.0001)  K= 18.0  ;  r=        56250.0  ;  phiRef/g=     4578.264
(PID.TID 0000.0001)  K= 18.5  ;  r=        55000.0  ;  phiRef/g=     4743.603
(PID.TID 0000.0001)  K= 19.0  ;  r=        53750.0  ;  phiRef/g=     4908.943
(PID.TID 0000.0001)  K= 19.5  ;  r=        52500.0  ;  phiRef/g=     5079.870
(PID.TID 0000.0001)  K= 20.0  ;  r=        51250.0  ;  phiRef/g=     5250.798
(PID.TID 0000.0001)  K= 20.5  ;  r=        50000.0  ;  phiRef/g=     5427.790
(PID.TID 0000.0001)  K= 21.0  ;  r=        48750.0  ;  phiRef/g=     5604.781
(PID.TID 0000.0001)  K= 21.5  ;  r=        47500.0  ;  phiRef/g=     5788.380
(PID.TID 0000.0001)  K= 22.0  ;  r=        46250.0  ;  phiRef/g=     5971.979
(PID.TID 0000.0001)  K= 22.5  ;  r=        45000.0  ;  phiRef/g=     6162.811
(PID.TID 0000.0001)  K= 23.0  ;  r=        43750.0  ;  phiRef/g=     6353.642
(PID.TID 0000.0001)  K= 23.5  ;  r=        42500.0  ;  phiRef/g=     6552.430
(PID.TID 0000.0001)  K= 24.0  ;  r=        41250.0  ;  phiRef/g=     6751.217
(PID.TID 0000.0001)  K= 24.5  ;  r=        40000.0  ;  phiRef/g=     6958.807
(PID.TID 0000.0001)  K= 25.0  ;  r=        38750.0  ;  phiRef/g=     7166.396
(PID.TID 0000.0001)  K= 25.5  ;  r=        37500.0  ;  phiRef/g=     7383.785
(PID.TID 0000.0001)  K= 26.0  ;  r=        36250.0  ;  phiRef/g=     7601.174
(PID.TID 0000.0001)  K= 26.5  ;  r=        35000.0  ;  phiRef/g=     7829.552
(PID.TID 0000.0001)  K= 27.0  ;  r=        33750.0  ;  phiRef/g=     8057.931
(PID.TID 0000.0001)  K= 27.5  ;  r=        32500.0  ;  phiRef/g=     8298.734
(PID.TID 0000.0001)  K= 28.0  ;  r=        31250.0  ;  phiRef/g=     8539.537
(PID.TID 0000.0001)  K= 28.5  ;  r=        30000.0  ;  phiRef/g=     8794.522
(PID.TID 0000.0001)  K= 29.0  ;  r=        28750.0  ;  phiRef/g=     9049.507
(PID.TID 0000.0001)  K= 29.5  ;  r=        27500.0  ;  phiRef/g=     9320.860
(PID.TID 0000.0001)  K= 30.0  ;  r=        26250.0  ;  phiRef/g=     9592.214
(PID.TID 0000.0001)  K= 30.5  ;  r=        25000.0  ;  phiRef/g=     9882.710
(PID.TID 0000.0001)  K= 31.0  ;  r=        23750.0  ;  phiRef/g=    10173.207
(PID.TID 0000.0001)  K= 31.5  ;  r=        22500.0  ;  phiRef/g=    10486.446
(PID.TID 0000.0001)  K= 32.0  ;  r=        21250.0  ;  phiRef/g=    10799.686
(PID.TID 0000.0001)  K= 32.5  ;  r=        20000.0  ;  phiRef/g=    11140.476
(PID.TID 0000.0001)  K= 33.0  ;  r=        18750.0  ;  phiRef/g=    11481.266
(PID.TID 0000.0001)  K= 33.5  ;  r=        17500.0  ;  phiRef/g=    11856.253
(PID.TID 0000.0001)  K= 34.0  ;  r=        16250.0  ;  phiRef/g=    12231.240
(PID.TID 0000.0001)  K= 34.5  ;  r=        15000.0  ;  phiRef/g=    12650.033
(PID.TID 0000.0001)  K= 35.0  ;  r=        13750.0  ;  phiRef/g=    13068.825
(PID.TID 0000.0001)  K= 35.5  ;  r=        12500.0  ;  phiRef/g=    13546.168
(PID.TID 0000.0001)  K= 36.0  ;  r=        11250.0  ;  phiRef/g=    14023.510
(PID.TID 0000.0001)  K= 36.5  ;  r=        10000.0  ;  phiRef/g=    14583.984
(PID.TID 0000.0001)  K= 37.0  ;  r=         8750.0  ;  phiRef/g=    15144.458
(PID.TID 0000.0001)  K= 37.5  ;  r=         7500.0  ;  phiRef/g=    15834.528
(PID.TID 0000.0001)  K= 38.0  ;  r=         6250.0  ;  phiRef/g=    16524.599
(PID.TID 0000.0001)  K= 38.5  ;  r=         5000.0  ;  phiRef/g=    17453.281
(PID.TID 0000.0001)  K= 39.0  ;  r=         3750.0  ;  phiRef/g=    18381.963
(PID.TID 0000.0001)  K= 39.5  ;  r=         2500.0  ;  phiRef/g=    19974.105
(PID.TID 0000.0001)  K= 40.0  ;  r=         1250.0  ;  phiRef/g=    21566.248
(PID.TID 0000.0001)  K= 40.5  ;  r=            0.0  ;  phiRef/g=    30201.876
(PID.TID 0000.0001)  MDS_READ_FIELD: opening global file: top19232.data
(PID.TID 0000.0001) // =======================================================
(PID.TID 0000.0001) // Field Model R_low (ini_masks_etc)
(PID.TID 0000.0001) // CMIN =          1.000000000000000E+32
(PID.TID 0000.0001) // CMAX =         -1.000000000000000E+32
(PID.TID 0000.0001) // CINT =          0.000000000000000E+00
(PID.TID 0000.0001) // SYMBOLS (CMIN->CMAX): -abcdefghijklmnopqrstuvwxyz+
(PID.TID 0000.0001) //                  0.0: .
(PID.TID 0000.0001) // RANGE I (Lo:Hi:Step):(    -1:   194:     1)
(PID.TID 0000.0001) // RANGE J (Lo:Hi:Step):(    34:    -1:    -1)
(PID.TID 0000.0001) // RANGE K (Lo:Hi:Step):(   1:   1:   1)
(PID.TID 0000.0001) // =======================================================
(PID.TID 0000.0001) // =======================================================
(PID.TID 0000.0001) // END OF FIELD                                          =
(PID.TID 0000.0001) // =======================================================
(PID.TID 0000.0001) 
(PID.TID 0000.0001) // =======================================================
(PID.TID 0000.0001) // Field Model Ro_surf (ini_masks_etc)
(PID.TID 0000.0001) // CMIN =          5.000000000000000E+04
(PID.TID 0000.0001) // CMAX =          1.000000000000000E+05
(PID.TID 0000.0001) // CINT =          1.851851851851852E+03
(PID.TID 0000.0001) // SYMBOLS (CMIN->CMAX): -abcdefghijklmnopqrstuvwxyz+
(PID.TID 0000.0001) //                  0.0: .
(PID.TID 0000.0001) // RANGE I (Lo:Hi:Step):(    -1:   194:     1)
(PID.TID 0000.0001) // RANGE J (Lo:Hi:Step):(    34:    -1:    -1)
(PID.TID 0000.0001) // RANGE K (Lo:Hi:Step):(   1:   1:   1)
(PID.TID 0000.0001) // =======================================================
(PID.TID 0000.0001) K =   1
(PID.TID 0000.0001) //                I=8       I=18      I=28      I=34      I=44      I=54      I=64      I=70      I=80      I=90      I=96      I=106     I=116     I=126     I=132     I=142     I=152     I=162     I=168     I=178     I=188
(PID.TID 0000.0001) // |--J--|101234567|901234567|901234567|901234123|567890123|567890123|567890123|563456789|123456789|123456789|123456785|789012345|789012345|789012345|789078901|345678901|345678901|345678901|901234567|901234567|901234567|901234
(PID.TID 0000.0001) //     34 ++++++++++++++++++yxrzzuz+++xoporpwrrpwrp+++zz+zyxwwvnqppsrtuuxzxt+++++++++++++++++++xyzyyyxxtpnqpqx+++++++++++++++++++++++++++++++++++++++++++++++++++++++++++++++zxxwxxxz+++++++++++++++++++++++++++++++++++++++++++++
(PID.TID 0000.0001) //     33 +++++++++++++++++zuy+xuvx+utrtvxwuupwuupq++zzzzzxxxtuvponrsuttwzxx++++++++++++++++++yyyyzyyxxusnqrqu++++++++++++++++++++++++++++++++++++++++++++++++++++++++++++++++zxxxwvw+++++++++++++++++++++++++++++++++++++++++++++
(PID.TID 0000.0001) //     32 +++++++++++++++zxxxxyxzvvyxtttwxyytpyytppsywyzyxsonnostssrststx++zy+zyzw++++++++++++zxzzzyyxxusopsrx++++++++++++++++++++++++++++++++++++++++++++++++++++++++++++++++zyxwwwvuy+++++++++++++++++++++++++++++++++++++++++++
(PID.TID 0000.0001) //     31 +++++++++++++++zvuz+z+y+xzxvvzxyy+wqy+wqpttutyyrihotvuuqrssssx+z++y+yzyx+++++++++++zyyyyyyxyxwurtvw+++++++++++++++++++++++++++++++++++++++++++++++++++++++++++++++++zzyywwxxxzz+++++++++++++++++++++++++++++++++++++++++
(PID.TID 0000.0001) //     30 +++++++++++++++zxx++++z+zz+++yvwxz+xxz+xnqttttppgemspiiielqrtxz++++zy+z+++++++++++++zxyzzyyyxxvstvz+++++++++++++++++++++++++++++++++++++++++++++++++++++++++++++++z+zyyyywyywvw+++++++++++++++++++++++++++++++++++++++++
(PID.TID 0000.0001) //     29 ++++++++++++++++yxwww++++++++zwvxyz+xyz+toqutrmnsgaaaabdeinsvz+++++++++++++++++++zzzxwxz+zzzyxwsrtz++++++++++++++++++++++++++++++++++++++++++++++++++++++++++++++zyzzyxyxxxyxxyz++++++++++++++++++++++++++++++++++++++++
(PID.TID 0000.0001) //     28 +++++++++++++++xstvyzyz+zzz+zxuvvxy+vxy+yrptuvrtzteaaaaacfquvzzyz++++++++++++++++++yxxxz+++yxxwvstz++++++++++++++++++++++++++++++++++++++++++++++++++++++++++++++zz++zyyyzzyzzzz++++++++++++++++++++++++++++++++++++++++
(PID.TID 0000.0001) //     27 ++++++++++++z+zuwxxyyxxyzzzzyyxvuwxzuwxz+yxvtuuyzyte-abedguwvzyxz+++++++++++++++++++zxzz+++yxyxwtuz+++++++++++++++++++++++++++++++++++++++++++++++++++++++++++++zxzz+zyyyzzzz++z++++++++++++++++++++++++++++++++++++++++
(PID.TID 0000.0001) //     26 ++++++++++++++yxxyyxwxxxzyxyyy+xuvwyuvwy++zzzyyzyyzytmounlptwxxxz++++++++++++++++++++z+y+++yxyyxstz++++++++++++++++++++++++++++++++++++++++++++++++++++++++++++zxwy+++zyyyxzzz++++++++++++++++++++++++++++++++++++++++++
(PID.TID 0000.0001) //     25 +++++++++++++zyyyyyutuvxxxwxyxyztvwytvwyzzyz++++yxxxy+yvuqqvyyz+y+++++++++++++++++++++yz+zzyyyyutuz++++++++++++++++++++z+++++++++++++++++++++++++++++++++++++++zxwx+++zzynmqxzyzzz++zz++++++++++++++++++++++++++++++++++
(PID.TID 0000.0001) //     24 +++++++++++++zyyyyxwvwwuuxwxyyw+wtwxwtwxzzz+++++yxxxy+zxutuz+++++++++++++++++++++++xz+yz+zzzzyzttt+++++++++++++++++++++++++++++++++++++++++++++++++++++++++++++yzzzz+zzynfefgswxyz++yz++++++++++++++++++++++++++++++++++
(PID.TID 0000.0001) //     23 +++++++++++++zyyyyxxwxxxxxwxxxxx+rvw+rvwxy++++++xxxx+++zxwwzz+++yz+++++++++++++++++tpy+yyzz+zzyytuw+++++++++++++++++++++++++++++++++++++++++++++z+++++++++++y++xwzyzzzyqftxuplnrvywzvywz+++++++++++++yutyz++++++++++++++
(PID.TID 0000.0001) //     22 +++++++++++++zzyyyyyxxyyyvuwxxxszttxzttxz+++++++yxz+++++zyzxz+++z+++++++++++++++++++nsz+zyz+zz+yxwvzz+++++++++++++++++++++++++++++++++++++++++++yzy+++++++++z++xusxzzzxko+++++ywtuvxtuvxw+++++++++++xojikpqtw+++++++++++
(PID.TID 0000.0001) //     21 +++++++++++++zyyyyyyxxyxxwuwwxunwz+zwz+z+++++++++wz++++++zzzy+++zz++++++++++++++++++lknyzyz+++++uxyzz+++++++++++++++++++++++++++++++++++++++++++yxyxz+++++++++++xvswxqlt+++++++++z+x+z+xvxz+++z+++++tkiiikllq+++++++++++
(PID.TID 0000.0001) //     20 +++++++++++++yxxyyyyxxxxxxwxxxrnttvwttvw+++++++++y+++++++++++++++zz+++++++++++++++z+qkkntwz+++++zxyz++++++++++++++++++++++++++++++++++++++++++++yzyyxz++++++++++++zuuw+++++++++++++++++++++++++xz+++tlihhkmpqz++++++++++
(PID.TID 0000.0001) //     19 ++++++++++++++yyzzzzzxvwxwvwxxspswxzswxz++++++++++z++++++z+++++z+zy+++++zz+++z++++y++wnnuw+++++++zz+++++++++++++++++++++++++++++++++++++++++++++yzyzyxx++++++++y++++++++++++++++++++++++++++++++xs+yxmjhhkoqv+++++++++++
(PID.TID 0000.0001) //     18 +++++++++++++++++++++xwwxxwvvuwtwyz+wyz+++++++++++++++++yzz+++yy++++++++vx++++z++++++++xx+++++++++z+++++++++++++++++++++++++++++++++++++++++++++yzzyyzyz+++++yxz+++++++++++++++++++++++++++++++++wz+xnkhfgiikp++++++++++
(PID.TID 0000.0001) //     17 +++++++++++++++++++++yxxyxxwttrwz+++z++++++++++++++++++++y+++zwyzz+z++++uxz+++++++++++++++++++++++y+++++++++++++++++++++++++++++++++++++++++++++yyyyzzzz+++++xy++++++++++++++++++++++++++++++++++uqqpmjihfghimx+++++++++
(PID.TID 0000.0001) //     16 +++++++++++++++++++++zxxyxxvrtqv+++++++++++++++++++++++++zz++zz+xz+++y++zxuyz+++x+++++x++++++++++xyy++++++++++++++++++++++++++++++++++++++++z+++xyyyzyz++++++u+++++++++++++++++++++++++++++++++++xrqvnkkjihiimu+++++++++
(PID.TID 0000.0001) //     15 +++z++++++++++++++++++yxxxxvstsw++++++++++++++++++++++++++z+++++yz+++z+++xyxz+++xwvz+++++++++++++yxzy+++++++++++++++++++++++++++++++++++++++zz++yxxxyyyz+++++y+++++++++++++++++++++++++++++++++++yptxwmlljijknt+++++++++
(PID.TID 0000.0001) //     14 zzzxyz++++++++++++++++zvvvvvttty+++++++++++++++++++++++++++zzz++++++++wvzy+rx++z++zy+++++++++++++zxwz+++++++++++++++++++++++++++++++++++++++++z+xxxxwxyyz+zyrx+++++++++++++++++++++++++++++++++++zpvz+xpnkjjlq++++++++++
(PID.TID 0000.0001) //     13 zyxxyz++++++++++++++++zttuuttsux++++++++++++++++++++++++++++++++zzz++++++xxzxz++++zy++++++z+++++zzyu+wy+++++++++++++++++++++++++++++++++++++++y+wuutttuvwwqqr+++++++++++++++++++++++++++++++++++++zzz++unlljnw++++++++++
(PID.TID 0000.0001) //     12 yxxwz+++++++++++++++++xrttttttvx++++++++++++++++++++++++++++++++++++++++yzuzxzzz++z+++z++++z+++zyvuu+zv+++++++++++++++++++++++++++++++++++++++++usspmnrttspqx++++++++++++++++++++++++++++++++++++++++++wnmlmr+++++++++++
(PID.TID 0000.0001) //     11 ywxx++++++++++++++++++vttuttvvvx+++x+++x++++++++++++++++++++++++++zzzz+++vvuuzzzzzzz++++++zz+zyxvtsx++++++++++++++++++++++++++++++++++++++++++++ronnoopsqqx++++++++++++++++++++++++++++++++++++++++++++voopov+++++++++++
(PID.TID 0000.0001) //     10 wwwx++++++++++++++++++vttuuutwz+++xx++xx++++++++++++++++++++++++++yyzz++xvxzzzzzzzzzzzz+++zzyzzuuwux++++++++++++++++++++++++++++++z+++++++++++++tpqqpqttwz+++++++++++++++++++++++++++++++++++++++++++++xvvyz++++++++++++
(PID.TID 0000.0001) //      9 wwvx++++++++++++++++++ystuutux++++ux++ux+++++++++++++++++++++++zzzyxyyz+zy+++zzzzzzzzyz++zvxyxzzzywz++++++++++++++++++++++++++++++++++++++++++++vsrpptxzzz++++++++++++++++++++++++++++++++++++++++++++++++++++++++++++++
(PID.TID 0000.0001) //      8 xvwz+++++++++++++++++++stuuuxz+++zv++zv+++++++++++++++++++++++zxyyyxxxyzxxu+zzzzzzzzyzzz+zxxxxyyxxvyxz++++++++++++++++++++++++++++++++++++z+++++wrqqptxy++++++++++++++++++++++++++++++++++++++++++++++++++++++++++++++++
(PID.TID 0000.0001) //      7 xu+++++++++++++++++++++uuutsv++++zx++zx+++++++++++++++++++++++yxxxxxxxyzvtt+++zzzzzzz+zzzzxxxxxxwuuvyx++z+++z+++++++++++++++++++z+++++++yxxxwvyz+xuxyy++++++++++++++++++++++++++++++++++++++++++++++++++++++++++++++++++
(PID.TID 0000.0001) //      6 xy+++++++++++++++++++++xvtsqx+++++++++++++++++++++++++++++++++yxxxxxwyzzvtrxyxz++zyxz+zzzzyxxxvtuwyxwyy+y+++y+++++++++++++++++++++z++++zxyzzzzz+++++++++++++++++++++++++++++++++++++++++++++++++++++++++++++++++++++++++
(PID.TID 0000.0001) //      5 z++++++++++++++++++++++zutrt++++++++++++++++++++++++++++++++++yxxyyyyzz+zttovu+++zyyzzzzzzyyxwttvvxyzzx++x+++x+++++++++++++++++++wy+++yyxyzzz+++++++++++++++++++++++++++++++++++++++++++++++++++++++++++++++++++++++++++
(PID.TID 0000.0001) //      4 z++++++++++++++++++++++zyxy+++++++++++++++++++++++++++++++++++yyyzzzzzz+xwvppp+++zyzzyzzzxxtwwuuvvxyxyx+++x+++x+++++++++++++++++yu++zxxyzzzzz+++++++++++++++++++++++++++++++++++++++++++++++++++++++++++++++++++++++++++
(PID.TID 0000.0001) //      3 +++++++++++++++++++++++++++++++++++++++++++++++++++++++++++++++++++++zzzyxxoqv++zzzzxxxywssrptttvvxzxw++++xx++xx++++++++++++++++wy++++zzzz+zyz++++++++++++++++++++++++++++++++++++++++++++++++++++++++++++++++++++++++++
(PID.TID 0000.0001) //      2 ++++++++++++++++++++++++++++++++++++++++++++++++++++++++++++++++++++++zyyywrp+++zz+zyxwwvnqppsrtuuxzxt++++wx++wx++++++++++++++++v+++++zzz++zy++++++++++++++++++++++++++++++++++++++++++++++++++++++++++++++++++z++++++++
(PID.TID 0000.0001) //      1 ++++++++++++++++++++++++++++++++++++++++++++++++++++++++++++++++++++++z++yupq++zzzzzxxxtuvponrsuttwzxx++++zy++zyz+++++++++++++++w++++zyyzzzzzz++++++++++++++++++++++++++++++++++++++++++++++++++++++++++zy+++++yz+++++++
(PID.TID 0000.0001) //      0 ++++++++++++++++++++++++++++++++++++++++++++++++++++++++++++++++++++++++wttppsywyzyxsonnostssrststx++zy+zyyzzyyz++++++++++++++yz+++zzyxxyzzz+++++++++++++++++++++++++++++++++++++++++++++++++++++++++++z+++++++vz++z+zzz
(PID.TID 0000.0001) //     -1 ++++++++++++++++++++++++++++++++++++++++++++++++++++++++++++++++++++++++qpwqpttutyyrihotvuuqrssssx+z++y+yzzyyzzyy++++++++++++++++++zzyxxwyz+++++++++++++++++++++++++++++++++++++++++++++++++++++++++++zz+++++++wzzzyyz+y
(PID.TID 0000.0001) // =======================================================
(PID.TID 0000.0001) // END OF FIELD                                          =
(PID.TID 0000.0001) // =======================================================
(PID.TID 0000.0001) 
(PID.TID 0000.0001) // =======================================================
(PID.TID 0000.0001) // Field hFacC at iteration          0
(PID.TID 0000.0001) // CMIN =          5.000000000000000E-01
(PID.TID 0000.0001) // CMAX =          1.000000000000000E+00
(PID.TID 0000.0001) // CINT =          1.851851851851852E-02
(PID.TID 0000.0001) // SYMBOLS (CMIN->CMAX): -abcdefghijklmnopqrstuvwxyz+
(PID.TID 0000.0001) //                  0.0: .
(PID.TID 0000.0001) // RANGE I (Lo:Hi:Step):(    -1:   194:     1)
(PID.TID 0000.0001) // RANGE J (Lo:Hi:Step):(    34:    -1:    -1)
(PID.TID 0000.0001) // RANGE K (Lo:Hi:Step):(   1:   1:   1)
(PID.TID 0000.0001) // =======================================================
(PID.TID 0000.0001) K =   1
(PID.TID 0000.0001) //                I=8       I=18      I=28      I=34      I=44      I=54      I=64      I=70      I=80      I=90      I=96      I=106     I=116     I=126     I=132     I=142     I=152     I=162     I=168     I=178     I=188
(PID.TID 0000.0001) // |--J--|101234567|901234567|901234567|901234123|567890123|567890123|567890123|563456789|123456789|123456789|123456785|789012345|789012345|789012345|789078901|345678901|345678901|345678901|901234567|901234567|901234567|901234
(PID.TID 0000.0001) //     34 +++++++++++++++++h....b.-++y.............g+r-fi-..................++++++++++++++++++l...............v++++++++++++++++++++++++++++++++++++++++++++++++++++++++++++++.......-++++++++++++++++++++++++z++++++++++++++++++++
(PID.TID 0000.0001) //     33 +++++++++++++++++f..w....z...............++-b-....................+++yy+++++++++++zp................t++++++++++++++++++++++++++++++++++++++++++++++++++++++++++++++j.......w++++++++++++++++++++++++++++++++++++++++++++
(PID.TID 0000.0001) //     32 ++++++++zy+++++-...............................................mu..+c.-.+++++++++++w-...............+++++++++++++++++++++++++++++++++++++++++++++++++++++++++++++++w-........+++++++++++++++++++++++++++++++++++++++++++
(PID.TID 0000.0001) //     31 ++++++++++z++++....+-v.h.f.......k...k........................yfxp.w....++++++++++wb...............q+++++++++++++++++++++++++++++++++++++++++++++++++++++++++++++++x-.........f+++++++++++++++++++++++++++++++++++++++++
(PID.TID 0000.0001) //     30 +++++++++++++++-..zxoq-+--r+n....cp..cp........................n+xv-.z.+++++++++++mz...--.........-++++++++++++++++++++++++++++++++++++++++++++++++++++++++++++++g-q-..........z++++++++++++++++++++++++++++++++++++++++
(PID.TID 0000.0001) //     29 ++++++++++++++++.....p+++y++z.....-s..-s......................hky++qq++++++++++++-.d...-n-.........++++++++++++++++++++++++++++++++++++++z++++++++++++++++++++++y..--..........-+++++++++++++++++++++++++++++++z++++++++
(PID.TID 0000.0001) //     28 ++++++++++++y+z.....-..xc--g-......j...j.....................-..-++v++++++++++++++h....-+xh........+++++++++++++++++++++++++++++++++++++++++++++++++++++++++++++u..ij....-...--.k+++k+++++++++++++++++++++++++++++++++++
(PID.TID 0000.0001) //     27 ++++++++++++fx-.........---.............z.......................-+zx+++++++++++++++m...-z+w.......-++++++++++++++++++++++++++++++++++t+++++++++++++++++++++++xyx...brf....--glido+++o+++++++++w+++++++++++++++++++v+++++
(PID.TID 0000.0001) //     26 +++++++++++++l................g.........kt.a...-.................y+++++++z+++++++++++.n.oyl.......-++++++++++++++++++++++++++++++++++y++++++++++++++++++++++xux-...stl......-fmrsh++sh+++++++++++z++++++++++++++++++++++
(PID.TID 0000.0001) //     25 ++++++++++++t..................e........--..++zl.....p.........q.++++++++y++++++++++++.-t-........a++++++++++++++++++++-u+++++++++++++++++++++++++++++++++++u++....prk-........-b.++b.++++++++++++++++++++++++++++++++++
(PID.TID 0000.0001) //     24 ++++++++++++m..................y..........-y+++m.....za.....jq++zy++++++z+++++++++y.-+..y.cb......s++++++++++++++++++++x++++++++++++++++++++++++w+z+++++++++s+z.a.-ch-...........-++.-++++++++++++++++++++++++++++++++++
(PID.TID 0000.0001) //     23 +++++++++t++x-..................j...j.....v+++++....j++-....az++.c+++++++++++++++++...y...en.-.....++++++++++++++++++++y++++++++++++++++++++++++bwp++++++++y.+v....-g-..................z+z+++++++++v.....x+++++++++++++
(PID.TID 0000.0001) //     22 +++++++++tz+sg..........................-+++++++...z+++y.....+++.p++++++++++++++++++...+-.cu--p......+++++++++++++++++++++++++++++++++++++++++++.-.l+++++++tg++....-b....++++r...........++y++z+++++.........+++++++++++
(PID.TID 0000.0001) //     21 ++++++++++++v.....................o...o.pu++++++q..+++z+n---.+++fen+++++++++++++++++....-.emw++u....am++++++++++++++++++++++++++++++++++++++++++....e+++++zml++u........r+++++++pay.pay....+++-+++++.........+++++++++++
(PID.TID 0000.0001) //     20 +++++++++++++...........................q++++++++.q+++++onssv++rt-.+++++++++++++++.+.......+++++b..-x+++++++++++++++++++++++++++++++++++++++++++......jz+++s+++lj+-...x+++++++z++++++++++++++++..+++.........-++++++++++
(PID.TID 0000.0001) //     19 +++++++++++++v..........................+++++++++x-x+++xyaz++++-ye.++z++.-+++-++++.+z.....z++++++.-++++n++++++++++++++++++++++++++++++++++++++++.......kwyzv+zu.k+++++++++++++z++++++++++++++++z..+..........+++++++++++
(PID.TID 0000.0001) //     18 ++++++++++++++ziwu+zn.............-y..-y+++++++++++++++r.-.yzz..x+w+++++..+++lgu++++++z..+++++++++.+++++++++++++++++++++++++++++++++++++++++++++.......-w++++..-+++++++++++++++++++++++++++++++++..r..........++++++++++
(PID.TID 0000.0001) //     17 ++++++++++++++++++++y............gy+.gy+++++++++++++++++h.lzm...--k-++++..fh+p++++++++++++++++++++.+++++++++++++++++++++++++++++++++yz++++++++++.....--dw++xj..++++z++++++++++++++++++++++++++++n..............+++++++++
(PID.TID 0000.0001) //     16 +++++++++++++++++++++-..........l+++l+++++++++++++++++++z.cyz--t..toi.++....d++n.+++++.++++++++++...++++++++++++++++++++++++++++++++so++++++-x++......-px+++o.m+++ys++++++++++++++++++++++++++++o..............+++++++++
(PID.TID 0000.0001) //     15 xwj.jz+++++++++++++++v..........y+++y++++z+++++++++++++++z.r+ztz.-lht-mn+....pyx....+++++++++++++....++++++++++++++++++++++++++++++++++++++t-.++.......du+++o.+++++++++++++++++++++++++++++++++++..............+++++++++
(PID.TID 0000.0001) //     14 --....++++++++++++++++..........+++++++++++++++++++++++++++d--gvwysxyx..-.w..iwdto-.q+++r+++++z+vd...+s++++++++++++++++++++++++++++++++++++z+k.+.........m-...+++++++++++++++++++++++++++++++++++-..-+........++++++++++
(PID.TID 0000.0001) //     13 .....-++++++++++++++++-.........y+++y+++++++++++++++++++++++++uh-f-y++++v....-xwyla.y++i++ay++xq-b..+..+++++++++++++++++++++++++++++wxz+++++++.z.............s++++++++++++++++++++++++++++++++++++e-a+y.......++++++++++
(PID.TID 0000.0001) //     12 ....-+++++++++++++++++..........ltzultzu++++++++++++++++++++++++++++vg++...b..--ns-lw+-rz+u.xz+-....md.+++++++++++++++++++++++++++zxn+h+++++++++.............+++++++++++++++++++++++++++++++++++++++++y......u++++++++++
(PID.TID 0000.0001) //     11 ....q+++++++++++++++++..........l+x.l+x.++++++++++++++++++++++++++-e-.w+h.....----bejtuuxj.anb......+++p+++++++++++++++++++++z++++++++v+++++++++...........mz+++++++++++++++++++++++++++++++++++++++++z......+++++++++++
(PID.TID 0000.0001) //     10 ....v++++++++++++++++y.........l+r..+r..+++++++++++++++++++++++++i....v+...-..-..----c.pni..........++++w+++w++++++++++++++++++++zg+++++++++++++.........-i+++++++++++++++++z++++++++++++++++++++++++++.....++++++++++++
(PID.TID 0000.0001) //      9 ....++++++++++++++++++........x++r..+r..++s+++++++++++++++++++ue-.....-uf.z+y--.-a---.-qo-.........-z+++j+++j++++++++++++++++++++rw+++++++++++++.........-++++++++++++++++++++++++++++++++++++++++++++++y+++++++++++++++
(PID.TID 0000.0001) //      8 ...-++++++++++++++++++g......-w++..m+..m++w++++++++++++++++++z.............+----.--..-dfk-...........aj+v+++v++++++++++++++++++++k+z++++xm.kxy++........u+++++++++++++++++++++++++++++++++++++++++++++++++++++++++++++++
(PID.TID 0000.0001) //      7 ..w+++++++++++++++++++t......rz++c.++c.++++++++++++++++++++++x.............yyo----...hfd--............vk-+++-++++++++++++++++++z-zxx+++v.......-q.....z+++++++++++++++++++++++++++++++++++++++++++++++++++++++++++++++++
(PID.TID 0000.0001) //      6 ..+++++++++++++++++++++......+++++y+++y++++++++++++++++++++++x.........-......-wwd..-jfed-.............+.+++.++++++++++++++++++yvh-+++i...-...f+++tv++++++++++++++++++++++++++++++++++++++++++++++++++++++++++++++++++++
(PID.TID 0000.0001) //      5 .++++++++++++++++++++++-....l+++++++++++++++++++++++++++++++++........bs......++y-...-be--.............+l.i+l.i++++++++zy++++++yx..++h....--bh++++++++++++++++++++++++++++++++++++++++++++++++++++++++++++++++++++++++++
(PID.TID 0000.0001) //      4 f++++++++++++++++++++++e...u+++++++++++++++++++++++++++++++++x...---..-x......+++-....--...............+++.p++.p++++++++zzz+++++..+x-.....--fk+++++++++++++++++++++++++++++++++++++++++++++++++++++++++z++++++++++++++++
(PID.TID 0000.0001) //      3 ++++++++++++++z+++++++++++++++++++++++++++++++++++++++++++++++rzr+++x--.......+h----..................y+++..++..u+++zz+++++++++y..yursa.-cif..++++++++++++++++++++++++++++++++++++++++++++++++++++++++++zz++++++++++++++
(PID.TID 0000.0001) //      2 +++++++++++++++z+++++++++++++++++++++++++++++++++++++++++++++++++++++y.......g+r-fi-..................++++..++..+++++++++++++++n.++++u..-sx..k+++++++++++++++++++++++++++++++++++++++++++++++++++++++++++z+++++-++++++++
(PID.TID 0000.0001) //      1 +++++++++++++++++++++++++++++++++++++++++++++++++++++++++++++++++++++z-kk....++-b-....................+++y-.+y-..++++++++++++++m.++wv-...b--.-++++++++++++++++++++++++++++++++++++++++++++++++++++++++++..+++++.f+++++zy
(PID.TID 0000.0001) //      0 ++++++++++++++++++++++++++++++++++++++++++++++++++++++++++++++++++++++++...........................mu..+c...c...z++++++++++z++.-x+g........-yzz+++++++++++++++++++++++++++++++++++++++++++++++++++++++x.k+++++y..hk.k--.
(PID.TID 0000.0001) //     -1 ++++++++++++++++++++++++++++++++++++++++++++++++++++++++++++++++++++++++..........................yfxp.w..c...c..q++++++++++++ity+v-.......x++y+++++++++++++++++++++++++++++++++++++++++++++++++++++++--++++++x..bf...k.
(PID.TID 0000.0001) // =======================================================
(PID.TID 0000.0001) // END OF FIELD                                          =
(PID.TID 0000.0001) // =======================================================
(PID.TID 0000.0001) 
(PID.TID 0000.0001) // =======================================================
(PID.TID 0000.0001) // Field hFacW at iteration          0
(PID.TID 0000.0001) // CMIN =          5.000000000000000E-01
(PID.TID 0000.0001) // CMAX =          1.000000000000000E+00
(PID.TID 0000.0001) // CINT =          1.851851851851852E-02
(PID.TID 0000.0001) // SYMBOLS (CMIN->CMAX): -abcdefghijklmnopqrstuvwxyz+
(PID.TID 0000.0001) //                  0.0: .
(PID.TID 0000.0001) // RANGE I (Lo:Hi:Step):(    -1:   194:     1)
(PID.TID 0000.0001) // RANGE J (Lo:Hi:Step):(    34:    -1:    -1)
(PID.TID 0000.0001) // RANGE K (Lo:Hi:Step):(   1:   1:   1)
(PID.TID 0000.0001) // =======================================================
(PID.TID 0000.0001) K =   1
(PID.TID 0000.0001) //                I=8       I=18      I=28      I=34      I=44      I=54      I=64      I=70      I=80      I=90      I=96      I=106     I=116     I=126     I=132     I=142     I=152     I=162     I=168     I=178     I=188
(PID.TID 0000.0001) // |--J--|101234567|901234567|901234567|901234123|567890123|567890123|567890123|563456789|123456789|123456789|123456785|789012345|789012345|789012345|789078901|345678901|345678901|345678901|901234567|901234567|901234567|901234
(PID.TID 0000.0001) //     34 +++++++++++++++++h.......-+y..............gr--f-...................+++..++++++++++++l................v+++++.+++++++++++++++++++++++++++++++++++.+++++++++++++++++++........-+++++++.+++++++++++++++zz++++++++++++++++++.
(PID.TID 0000.0001) //     33 +++++++++++++++++f........................+---.....................++y-y++++++++++zp.................t+++++++++++++++++++++++++++++++++++++++++++++++++++++++++++++j........w+++++++++++++++++++++++++++++++++++++++++++
(PID.TID 0000.0001) //     32 ++++++++zyy++++-................................................m...c...+++++++++++w-................++++++++++++++++++++++++++++++++++++++++++++++++++++++++++++++w-.........++++++++++++++++++++++++++++++++++++++++++
(PID.TID 0000.0001) //     31 ++++++++++zz+++.....--.........................................ffp......++++++++++wb................q++++++++++++++++++++++++++++++++++++++++++++++++++++++++++++++x-..........f++++++++++++++++++++++++++++++++++++++++
(PID.TID 0000.0001) //     30 +++++++++++++++-...xoo-----rn.....c...c.........................nxv-....++++++++++mm....-..........-+++++++++++++++++++++++++++++++++++++++++++++++++++++++++++++g---...........z+++z+++++++++++++++++++++++++++++++++++
(PID.TID 0000.0001) //     29 ++++++++++++++++......p++yy+z......-...-.......................hky+qqq+++++++++++-......--..........+++++++++++++++++++++++++++++++++++++zz+++++++++++++++++++++y...-...........-+++-++++++++++++++++++++++++++zz+++++++
(PID.TID 0000.0001) //     28 ++++++++++++yyz.........c----....................................-+vv+++++++++++++h.....-xh.........++++++++++++++++++++++++++++++++++++++++++++++++++++++++++++u...i.........-..k++.k++++++++++++++++++++++++++++++++++
(PID.TID 0000.0001) //     27 ++++++++++++ff-..........--......................................-zxx++++++++++++++m....-zw........-+++++++++++++++++++++++++++++++++tt++++++++++++++++++++++xxx....bf.....--giddo++do++++++++ww++++++++++++++++++vv++++
(PID.TID 0000.0001) //     26 +++++++++++++l...........................k........................y++++++zz++++++++++....ol........-+++++++++++++++++++++++++++++++++yy+++++++++++++++++++++xuu-....sl.......-fmrhh+rhh++++++++++zz+++++++++++++++++++++
(PID.TID 0000.0001) //     25 ++++++++++++t............................-...+zl..................+++++++yy+++++++++++..--.........a+++++++++++++++++++--u++++++++++++++++++++++++++++++++++uu+.....pk-.........-..+-..+++++++++++++++++++++++++++++++++
(PID.TID 0000.0001) //     24 ++++++++++++m..............................-y++m......a......jq+zyy+++++zz++++++++y..-.....b.......s+++++++++++++++++++xx+++++++++++++++++++++++mwzz++++++++ssz....-c-............-+..-+++++++++++++++++++++++++++++++++
(PID.TID 0000.0001) //     23 +++++++++tt+x-.............................v++++.....j+-.....az+..c++++++++++++++++........e........+++++++++++++++++++yy+++++++++++++++++++++++bbpp+++++++y..v.....--...................zzz++++++++v......x++++++++++++
(PID.TID 0000.0001) //     22 +++++++++ttzsg...........................-++++++....z++y......++..p+++++++++++++++++....-..c---.......++++++++++++++++++++++++++++++++++++++++++....l++++++tgg+.....-.....+++r............+yy+zz++++..........++++++++++
(PID.TID 0000.0001) //     21 ++++++++++++v............................pu+++++q...++zzn---..++feen++++++++++++++++.......emw+u.....am+++++++++++++++++++++++++++++++++++++++++.....e++++zmll+u.........r++++++paa.paa.....++--++++..........++++++++++
(PID.TID 0000.0001) //     20 +++++++++++++............................q+++++++..q++++onnssv+rr-..++++++++++++++..........++++b...-x++++++++++++++++++++++++++++++++++++++++++.......jz++ss++ljj-....x++++++zz+++++++++++++++...++..........-+++++++++
(PID.TID 0000.0001) //     19 +++++++++++++v...........................++++++++x--x++xxaaz+++--e..+zz+..-++--+++..z......z+++++..-+++nn+++n+++++++++++++++++++++++++++++++++++........kwyvvzu..k++++++++++++zz+++++++++++++++z..............++++++++++
(PID.TID 0000.0001) //     18 ++++++++++++++ziiuuzn..............-...-y++++++++++++++r....yz...xww++++...++lggu+++++z...++++++++..++++++++++++++++++++++++++++++++++++++++++++........-w+++...-++++++++++++++++++++++++++++++++..............+++++++++
(PID.TID 0000.0001) //     17 g+++++++++++++++++++y.............gy..gy++++++++++++++++h..lm....----+++...fhpp+++++++++++++++++++..++++++++++++++++++++++++++++++++yyz+++++++++......--dw+xj...+++zz+++++++++++++++++++++++++++n...............++++++++
(PID.TID 0000.0001) //     16 -++++++++++++++++++++-...........l++.l++++++++++++++++++z..cy---...oi..+.....d+n..++++..+++++++++....+++++++++++++++++++++++++++++++soo+++++--x+.......-px++o..m++yss+++++++++++++++++++++++++++o...............++++++++
(PID.TID 0000.0001) //     15 qwj..jz++++++++++++++v...........y++.y+++zz++++++++++++++z..rztt..-hh--mx.....px.....++++++++++++.....+++++++++++++++++++++++++++++++++++++t-..+........du++o..++++++++++++++++++++++++++++++++++...............++++++++
(PID.TID 0000.0001) //     14 --.....+++++++++++++++...........+++.++++++++++++++++++++++d---gvwssxx..-.....iddo-..q++rr++++zzvd....ss+++++++++++++++++++++++++++++++++++zzk............-....++++++++++++++++++++++++++++++++++-...-.........+++++++++
(PID.TID 0000.0001) //     13 ......-+++++++++++++++-..........y++.y++++++++++++++++++++++++uh----y+++q.....-wwla..y+ii+aay+xq--......++++++++++++++++++++++++++++wwxz++++++................s+++++++++++++++++++++++++++++++++++e--ay........+++++++++
(PID.TID 0000.0001) //     12 .....-++++++++++++++++...........ltu.ltuu+++++++++++++++++++++++++++vgg+.......--n--lw--rzu..xz-.....d..++++++++++++++++++++++++++zxnnhh++++++++..............++++++++++++++++++++++++++++++++++++++++y.......u+++++++++
(PID.TID 0000.0001) //     11 .....q++++++++++++++++...........lx..lx..+++++++++++++++++++++++++---..wh......----bejtuuj..ab.......++pp+++p++++++++++++++++zz+++++++vv++++++++............mz++++++++++++++++++++++++++++++++++++++++z.......++++++++++
(PID.TID 0000.0001) //     10 .....v+++++++++++++++y..........lr..lr...++++++++++++++++++++++++i.....v..........----..ni...........+++ww++ww+++++++++++++++++++zgg++++++++++++..........-i++++++++++++++++zz+++++++++++++++++++++++++......+++++++++++
(PID.TID 0000.0001) //      9 .....+++++++++++++++++.........x+r..+r...+ss++++++++++++++++++ue-......--..zy--..----..-o-..........-z++jj++jj+++++++++++++++++++rrw++++++++++++..........-+++++++++++++++++++++++++++++++++++++++++++++yy++++++++++++++
(PID.TID 0000.0001) //      8 ....-+++++++++++++++++g.......-w+...+...m+ww+++++++++++++++++z..............----..-...-df-............ajvv++vv+++++++++++++++++++kkzz+++xm..kxy+.........u++++++++++++++++++++++++++++++++++++++++++++++++++++++++++++++
(PID.TID 0000.0001) //      7 ...w++++++++++++++++++t.......rz+c..+c..+++++++++++++++++++++x..............yo----....fd--.............k--++--+++++++++++++++++z--xxx++v........q......z++++++++++++++++++++++++++++++++++++++++++++++++++++++++++++++++
(PID.TID 0000.0001) //      6 ...++++++++++++++++++++.......++++yy++yy+++++++++++++++++++++x.................-wd...-fed-................++..+++++++++++++++++yvh--++i........f++ttv+++++++++++++++++++++++++++++++++++++++++++++++++++++++++++++++++++
(PID.TID 0000.0001) //      5 ..+++++++++++++++++++++-.....l++++++++++++++++++++++++++++++++.........b.......+y-....-b--..............l..il..i+++++++zyy+++++yx...+h.....--bh+++++++++++++++++++++++++++++++++++++++++++++++++++++++++++++++++++++++++
(PID.TID 0000.0001) //      4 .f+++++++++++++++++++++e....u++++++++++++++++++++++++++++++++x....--...-.......++-.....-................++..++..p+++++++zzzz++++...x-......--fk++++++++++++++++++++++++++++++++++++++++++++++++++++++++zz+++++++++++++++
(PID.TID 0000.0001) //      3 z+++++++++++++zz++++++++++++++++++++++++++++++++++++++++++++++rrrr++x--........h----...................y++..++...u++zzz++++++++y...urra..-cf...+++++++++++++++++++++++++++++++++++++++++++++++++++++++++zzz+++++++++++++
(PID.TID 0000.0001) //      2 +++++++++++++++zz++++++++++++++++++++++++++++++++++++++++++++++++++++y........gr--f-...................+++..++...++++++++++++++n..+++u...-s...k++++++++++++++++++++++++++++++++++++++++++++++++++++++++++zz++++--+++++++
(PID.TID 0000.0001) //      1 +++++++++++++++++++++++++++++++++++++++++++++++++++++++++++++++++++++z--c.....+---.....................++y-.+y-...+++++++++++++m..+wv-....--..-+++++++++++++++++++++++++++++++++++++++++++++++++++++++++...++++..f++++zy
(PID.TID 0000.0001) //      0 ++++++++++++++++++++++++++++++++++++++++++++++++++++++++++++++++++++++-+............................m...c...c....z+++++++++zz+..-xg.........-yzz++++++++++++++++++++++++++++++++++++++++++++++++++++++x..k++++y...h..--.
(PID.TID 0000.0001) //     -1 ++++++++++++++++++++++++++++++++++++++++++++++++++++++++++++++++++++++k............................ffp........c...q+++++++++++iityv-........x+++++++++++++++++++++++++++++++++++++++++++++++++++++++++---+++++x...b....y
(PID.TID 0000.0001) // =======================================================
(PID.TID 0000.0001) // END OF FIELD                                          =
(PID.TID 0000.0001) // =======================================================
(PID.TID 0000.0001) 
(PID.TID 0000.0001) // =======================================================
(PID.TID 0000.0001) // Field hFacS at iteration          0
(PID.TID 0000.0001) // CMIN =          5.000000000000000E-01
(PID.TID 0000.0001) // CMAX =          1.000000000000000E+00
(PID.TID 0000.0001) // CINT =          1.851851851851852E-02
(PID.TID 0000.0001) // SYMBOLS (CMIN->CMAX): -abcdefghijklmnopqrstuvwxyz+
(PID.TID 0000.0001) //                  0.0: .
(PID.TID 0000.0001) // RANGE I (Lo:Hi:Step):(    -1:   194:     1)
(PID.TID 0000.0001) // RANGE J (Lo:Hi:Step):(    34:    -1:    -1)
(PID.TID 0000.0001) // RANGE K (Lo:Hi:Step):(   1:   1:   1)
(PID.TID 0000.0001) // =======================================================
(PID.TID 0000.0001) K =   1
(PID.TID 0000.0001) //                I=8       I=18      I=28      I=34      I=44      I=54      I=64      I=70      I=80      I=90      I=96      I=106     I=116     I=126     I=132     I=142     I=152     I=162     I=168     I=178     I=188
(PID.TID 0000.0001) // |--J--|101234567|901234567|901234567|901234123|567890123|567890123|567890123|563456789|123456789|123456789|123456785|789012345|789012345|789012345|789078901|345678901|345678901|345678901|901234567|901234567|901234567|901234
(PID.TID 0000.0001) //     34 +++++++++++++++++f.......z...............g+---....................+++y..++++++++++zp................t++++++.+++++++++++++++++++++++++++++++++++.+++++++++++++++++++........w+++++++.+++++++++++++++z+++++++++++++++++++.
(PID.TID 0000.0001) //     33 ++++++++zy+++++-...................................................+c.-.++++++++++zp................t++++++++++++++++++++++++++++++++++++++++++++++++++++++++++++++j.........+++++++++++++++++++++++++++++++++++++++++++
(PID.TID 0000.0001) //     32 ++++++++zyz++++................................................fu..w....++++++++++wb................+++++++++++++++++++++++++++++++++++++++++++++++++++++++++++++++w-.........f+++++++++++++++++++++++++++++++++++++++++
(PID.TID 0000.0001) //     31 ++++++++++z++++....x-q.h.-.......c...c.........................fxp.-....++++++++++mb...............q+++++++++++++++++++++++++++++++++++++++++++++++++++++++++++++g-q-..........z++++++++++++++++++++++++++++++++++++++++
(PID.TID 0000.0001) //     30 +++++++++++++++-.....p-+--r+n.....-...-........................kyxv-.z.++++++++++-.d...--..........++++++++++++++++++++++++++++++++++++++z++++++++++++++++++++++y..--..........-+++++++++++++++++++++++++++++++z++++++++
(PID.TID 0000.0001) //     29 ++++++++++++y+z........xc--g-......j...j........................-++qq++++++++++++-.....-n-.........++++++++++++++++++++++++++++++++++++++z++++++++++++++++++++++u..--...........k+++k++++++++++++++++++++++++++z++++++++
(PID.TID 0000.0001) //     28 ++++++++++++fx-.........---.....................................-+zv++++++++++++++h....-zxh........++++++++++++++++++++++++++++++++++t+++++++++++++++++++++++xyx...bj........--.k+++k+++++++++w+++++++++++++++++++v+++++
(PID.TID 0000.0001) //     27 ++++++++++++fl..........................k........................yzx+++++z+++++++++m....oyl.......-++++++++++++++++++++++++++++++++++t++++++++++++++++++++++xux-...brf......-fidoh++oh++++++++w++z++++++++++++++++v+++++
(PID.TID 0000.0001) //     26 ++++++++++++t...........................--.....-.................y+++++++y+++++++++++...o-........-++++++++++++++++++++-u++++++++++++y++++++++++++++++++++++uux....prk.........-b.++b.+++++++++++z++++++++++++++++++++++
(PID.TID 0000.0001) //     25 ++++++++++++m..................e............++zl.....p.........q.y++++++zy++++++++y.-+..t.........a++++++++++++++++++++-u+++++++++++++++++++++++w+z+++++++++s+z....ch-............++..++++++++++++++++++++++++++++++++++
(PID.TID 0000.0001) //     24 +++++++++t++m.............................-y+++m.....za.....aq++.c++++++z+++++++++y.......cb.......++++++++++++++++++++x++++++++++++++++++++++++bwp++++++++y.+v....-g-..................z+z+++++++++v.....x+++++++++++++
(PID.TID 0000.0001) //     23 +++++++++tz+s-............................v+++++....j++-.....z++.c+++++++++++++++++.......cn.-.......++++++++++++++++++y++++++++++++++++++++++++.-.l+++++++t.+v....-b....................+zy++z+++++.........+++++++++++
(PID.TID 0000.0001) //     22 +++++++++tz+s...........................-u++++++...z++zy.....+++.en+++++++++++++++++....-.cm--p......m++++++++++++++++++++++++++++++++++++++++++....e+++++zmg++..........++++r.............y++-+++++.........+++++++++++
(PID.TID 0000.0001) //     21 ++++++++++++v...........................pu++++++q..+++z+n---.++rf-.+++++++++++++++.+.......mw++u....am++++++++++++++++++++++++++++++++++++++++++......jz++zml++l........r+++++z+pay.pay....+++-..+++.........-++++++++++
(PID.TID 0000.0001) //     20 +++++++++++++...........................q++++++++.-x+++xoassv++-t-.++z++.-+++-++++.+.......+++++b..-x++n++++++++++++++++++++++++++++++++++++++++.......kwyzs+zu.j+-...x+++++++z++++++++++++++++...+..........-++++++++++
(PID.TID 0000.0001) //     19 +++++++++++++v..........................+++++++++x-x+++r.-.yzz..xe.++z++..+++-gu++.+z.....z++++++..++++n++++++++++++++++++++++++++++++++++++++++.......-wyzv+...k+++++++++++++z++++++++++++++++z..............++++++++++
(PID.TID 0000.0001) //     18 ++++++++++++++ziwu+zn.............-y..-y+++++++++++++++r...ym...--k-++++..fh+lgu++++++z..+++++++++.+++++++++++++++++++++++++++++++++yz++++++++++.......-w++xj..-+++z++++++++++++++++++++++++++++n..............+++++++++
(PID.TID 0000.0001) //     17 ++++++++++++++++++++y............gy+.gy+++++++++++++++++h.cym.....k-i.++....dp+n.+++++.++++++++++...++++++++++++++++++++++++++++++++so++++++-x++......-dw++xj..+++ys++++++++++++++++++++++++++++n..............+++++++++
(PID.TID 0000.0001) //     16 xwj.jz+++++++++++++++-..........l+++l++++z++++++++++++++z..rz--t..lhi.mn.....pyn....++.++++++++++....+++++++++++++++++++++++++++++++so+++++t-.++.......du+++o.m+++ys++++++++++++++++++++++++++++o..............+++++++++
(PID.TID 0000.0001) //     15 --....+++++++++++++++v..........y+++y++++z+++++++++++++++z.d--gv.-lht-..-....iwd....q+++r+++++z+v....+s++++++++++++++++++++++++++++++++++++t-..+.........m-...+++++++++++++++++++++++++++++++++++..............+++++++++
(PID.TID 0000.0001) //     14 ......++++++++++++++++..........y+++y++++++++++++++++++++++d--gh-f-xyx..-....-wdtl-.q++ir+ay++xq-b.....+++++++++++++++++++++++++++++wxz++++z+k.z..............+++++++++++++++++++++++++++++++++++-..-+........++++++++++
(PID.TID 0000.0001) //     13 .....-++++++++++++++++..........ltzultzu++++++++++++++++++++++uh-f-yvg++......--nl-.w+-iz+a.xzx-....m..+++++++++++++++++++++++++++zxnxh+++++++.z.............s++++++++++++++++++++++++++++++++++++e-a+y.......++++++++++
(PID.TID 0000.0001) //     12 ....-+++++++++++++++++..........ltx.ltx.++++++++++++++++++++++++++-e-.w+......-----ejt-rxj..nb......md.p+++++++++++++++++++++z++++zxn+h+++++++++.............+++++++++++++++++++++++++++++++++++++++++y......u++++++++++
(PID.TID 0000.0001) //     11 ....q++++++++++++++++y..........lr..lr..+++++++++++++++++++++++++i....v+......-..----c.pni..........+++pw+++w++++++++++++++++z+++zg+++v+++++++++...........mz+++++++++++++++z+++++++++++++++++++++++++z......+++++++++++
(PID.TID 0000.0001) //     10 ....v++++++++++++++++y.........l+r..+r..++s+++++++++++++++++++ue-.....-u...-..-..----..pn-..........z+++j+++j++++++++++++++++++++rg+++++++++++++.........-i+++++++++++++++++z++++++++++++++++++++++++++.....++++++++++++
(PID.TID 0000.0001) //      9 ....++++++++++++++++++........w++...+...++s++++++++++++++++++z.............+---..--...-fk-...........aj+j+++j++++++++++++++++++++kwz++++xm.kxy++.........-++++++++++++++++++++++++++++++++++++++++++++++y+++++++++++++++
(PID.TID 0000.0001) //      8 ...-++++++++++++++++++g......-w++..m+..m++w++++++++++++++++++x.............y----.-...-dd--............jk-+++-++++++++++++++++++z-kxx+++v.......-........u+++++++++++++++++++++++++++++++++++++++++++++++++++++++++++++++
(PID.TID 0000.0001) //      7 ..w+++++++++++++++++++t......rz++c.++c.++++++++++++++++++++++x................----...hfd--.............k.+++.++++++++++++++++++y-h-x++i........-q.....z+++++++++++++++++++++++++++++++++++++++++++++++++++++++++++++++++
(PID.TID 0000.0001) //      6 ..+++++++++++++++++++++......+++++y+++y++++++++++++++++++++++x.........-......-ww-...-be--.............+..i+..i++++++++zy++++++yv..++h....-...f+++tv++++++++++++++++++++++++++++++++++++++++++++++++++++++++++++++++++++
(PID.TID 0000.0001) //      5 .++++++++++++++++++++++-....l++++++++++++++++++++++++++++++++x........-s......++y-....--...............+l..pl..p+++++++zyzz++++y...x-.....--bh+++++++++++++++++++++++++++++++++++++++++++++++++++++++++z++++++++++++++++
(PID.TID 0000.0001) //      4 f+++++++++++++z++++++++e...u+++++++++++++++++++++++++++++++++x...---..-.......+h--.....................+++..++..u+++zz++zzz++++y..yu-.....--..+++++++++++++++++++++++++++++++++++++++++++++++++++++++++zzz++++++++++++++
(PID.TID 0000.0001) //      3 ++++++++++++++zz++++++++++++++++++++++++++++++++++++++++++++++rzr+++x-........+h----..................y+++..++..u+++zz+++++++++n..yurs..-ci...++++++++++++++++++++++++++++++++++++++++++++++++++++++++++zz+++++-++++++++
(PID.TID 0000.0001) //      2 +++++++++++++++z+++++++++++++++++++++++++++++++++++++++++++++++++++++y.......g+---....................+++y..+y...++++++++++++++m.++wv-...b-..-++++++++++++++++++++++++++++++++++++++++++++++++++++++++++..+++++.f+++++zy
(PID.TID 0000.0001) //      1 +++++++++++++++++++++++++++++++++++++++++++++++++++++++++++++++++++++z-k...............................+c...c....++++++++++z++.-.+g........-.-z+++++++++++++++++++++++++++++++++++++++++++++++++++++++x...++++y..hk.k--.
(PID.TID 0000.0001) //      0 ++++++++++++++++++++++++++++++++++++++++++++++++++++++++++++++++++++++-............................fu..w.....y...q+++++++++z++.-x+g........-yz++++++++++++++++++++++++++++++++++++++++++++++++++++++++-.k+++++x..bf...y+
(PID.TID 0000.0001) //     -1 ++++++++++++++++++++++++++++++++++++++++++++++++++++++++++++++++++++++...c.........................fxp.-......c..qvx+++++++++-ihxyv-.......x++++++++++++++++++++++++++++++++++++++++++++++++++++++++++--z+++++k..--...-x
(PID.TID 0000.0001) // =======================================================
(PID.TID 0000.0001) // END OF FIELD                                          =
(PID.TID 0000.0001) // =======================================================
(PID.TID 0000.0001) 
(PID.TID 0000.0001) GAD_INIT_FIXED: GAD_OlMinSize=  1  0  1
(PID.TID 0000.0001) 
(PID.TID 0000.0001) // ===================================
(PID.TID 0000.0001) // GAD parameters :
(PID.TID 0000.0001) // ===================================
(PID.TID 0000.0001) tempAdvScheme =   /* Temp. Horiz.Advection scheme selector */
(PID.TID 0000.0001)                       2
(PID.TID 0000.0001)     ;
(PID.TID 0000.0001) tempVertAdvScheme =   /* Temp. Vert. Advection scheme selector */
(PID.TID 0000.0001)                       2
(PID.TID 0000.0001)     ;
(PID.TID 0000.0001) tempMultiDimAdvec =   /* use Muti-Dim Advec method for Temp */
(PID.TID 0000.0001)                   F
(PID.TID 0000.0001)     ;
(PID.TID 0000.0001) tempSOM_Advection = /* use 2nd Order Moment Advection for Temp */
(PID.TID 0000.0001)                   F
(PID.TID 0000.0001)     ;
(PID.TID 0000.0001) AdamsBashforthGt = /* apply Adams-Bashforth extrapolation on Gt */
(PID.TID 0000.0001)                   T
(PID.TID 0000.0001)     ;
(PID.TID 0000.0001) AdamsBashforth_T = /* apply Adams-Bashforth extrapolation on Temp */
(PID.TID 0000.0001)                   F
(PID.TID 0000.0001)     ;
(PID.TID 0000.0001) saltAdvScheme =   /* Salt. Horiz.advection scheme selector */
(PID.TID 0000.0001)                       2
(PID.TID 0000.0001)     ;
(PID.TID 0000.0001) saltVertAdvScheme =   /* Salt. Vert. Advection scheme selector */
(PID.TID 0000.0001)                       2
(PID.TID 0000.0001)     ;
(PID.TID 0000.0001) saltMultiDimAdvec =   /* use Muti-Dim Advec method for Salt */
(PID.TID 0000.0001)                   F
(PID.TID 0000.0001)     ;
(PID.TID 0000.0001) saltSOM_Advection = /* use 2nd Order Moment Advection for Salt */
(PID.TID 0000.0001)                   F
(PID.TID 0000.0001)     ;
(PID.TID 0000.0001) AdamsBashforthGs = /* apply Adams-Bashforth extrapolation on Gs */
(PID.TID 0000.0001)                   T
(PID.TID 0000.0001)     ;
(PID.TID 0000.0001) AdamsBashforth_S = /* apply Adams-Bashforth extrapolation on Salt */
(PID.TID 0000.0001)                   F
(PID.TID 0000.0001)     ;
(PID.TID 0000.0001) // ===================================
  Set Alarm for: 19930110  060000, with frequency:       3000, and Tag: radsw
  Set Alarm for: 19930110  060000, with frequency:       3000, and Tag: radlw
  Set Alarm for: 19930110  060000, with frequency:        400, and Tag: turb
  Set Alarm for: 19930110  060000, with frequency:       1000, and Tag: moist
  Set Alarm for: 19930110  060000, with frequency:          0, and Tag: pnt
 FIZHI_INIT_VEG: defining surface type and fraction: ----------------------
 FIZHI_INIT_VEG: setting surface Tiles:
  bi=   1, bj=   1, # of Land Tiles=      1977, Total # of Tiles=      2562
  bi=   2, bj=   1, # of Land Tiles=      1981, Total # of Tiles=      2569
  bi=   3, bj=   1, # of Land Tiles=      2122, Total # of Tiles=      2553
  bi=   4, bj=   1, # of Land Tiles=       488, Total # of Tiles=      1380
  bi=   5, bj=   1, # of Land Tiles=      1457, Total # of Tiles=      2148
  bi=   6, bj=   1, # of Land Tiles=       246, Total # of Tiles=      1107
 FIZHI_INIT_VEG: done
(PID.TID 0000.0001)  MDS_READ_FIELD: opening global file: topvar19232.data
(PID.TID 0000.0001) ------------------------------------------------------------
(PID.TID 0000.0001) DIAGNOSTICS_SET_LEVELS: done
(PID.TID 0000.0001)  Total Nb of available Diagnostics: ndiagt=   403
(PID.TID 0000.0001)  write list of available Diagnostics to file: available_diagnostics.log
(PID.TID 0000.0001) SETDIAG: Allocate  1 x  1 Levels for Diagnostic #   307 TCANOPY
(PID.TID 0000.0001) SETDIAG: Allocate  1 x  1 Levels for Diagnostic #    93 RSURF
(PID.TID 0000.0001)   space allocated for all diagnostics:       2 levels
(PID.TID 0000.0001) DIAGNOSTICS_SET_POINTERS: done
(PID.TID 0000.0001) ------------------------------------------------------------
(PID.TID 0000.0001) DIAGSTATS_SET_REGIONS: define no region
(PID.TID 0000.0001) ------------------------------------------------------------
(PID.TID 0000.0001)   space allocated for all stats-diags:       0 levels
(PID.TID 0000.0001) DIAGSTATS_SET_POINTERS: done
(PID.TID 0000.0001) ------------------------------------------------------------
  Set Alarm for: 19930110  060000, with frequency:       3000, and Tag: diagtag01
(PID.TID 0000.0001) INI_GLOBAL_DOMAIN: Found  24 CS-corner Pts in the domain
(PID.TID 0000.0001) %MON fCori_max                    =   1.4574827780704E-04
(PID.TID 0000.0001) %MON fCori_min                    =  -1.4574827780704E-04
(PID.TID 0000.0001) %MON fCori_mean                   =   0.0000000000000E+00
(PID.TID 0000.0001) %MON fCori_sd                     =   8.4202189509968E-05
(PID.TID 0000.0001) %MON fCoriG_max                   =   1.4584247033981E-04
(PID.TID 0000.0001) %MON fCoriG_min                   =  -1.4584247033981E-04
(PID.TID 0000.0001) %MON fCoriG_mean                  =   2.2587545260115E-21
(PID.TID 0000.0001) %MON fCoriG_sd                    =   8.4202189509968E-05
(PID.TID 0000.0001) %MON fCoriCos_max                 =   1.4580166994612E-04
(PID.TID 0000.0001) %MON fCoriCos_min                 =   5.2407700865903E-06
(PID.TID 0000.0001) %MON fCoriCos_mean                =   1.1514045869113E-04
(PID.TID 0000.0001) %MON fCoriCos_sd                  =   3.0375849106513E-05
(PID.TID 0000.0001) INI_CG2D: CG2D normalisation factor =  9.9119603843467410E-06
(PID.TID 0000.0001) INI_CG2D: cg2dTolerance = 4.211461545964199E-10 (Area=5.0986421043E+14)
(PID.TID 0000.0001) 
(PID.TID 0000.0001) // =======================================================
(PID.TID 0000.0001) // Model configuration
(PID.TID 0000.0001) // =======================================================
(PID.TID 0000.0001) //
(PID.TID 0000.0001) // "Physical" paramters ( PARM01 in namelist )
(PID.TID 0000.0001) //
(PID.TID 0000.0001) buoyancyRelation = /* Type of relation to get Buoyancy */
(PID.TID 0000.0001)               'ATMOSPHERIC'
(PID.TID 0000.0001)     ;
(PID.TID 0000.0001) fluidIsAir   =  /* fluid major constituent is Air */
(PID.TID 0000.0001)                   T
(PID.TID 0000.0001)     ;
(PID.TID 0000.0001) fluidIsWater =  /* fluid major constituent is Water */
(PID.TID 0000.0001)                   F
(PID.TID 0000.0001)     ;
(PID.TID 0000.0001) usingPCoords =  /* use p (or p*) vertical coordinate */
(PID.TID 0000.0001)                   T
(PID.TID 0000.0001)     ;
(PID.TID 0000.0001) usingZCoords =  /* use z (or z*) vertical coordinate */
(PID.TID 0000.0001)                   F
(PID.TID 0000.0001)     ;
(PID.TID 0000.0001) tRef =   /* Reference temperature profile ( oC or K ) */
(PID.TID 0000.0001)                 2.951000000000000E+02,      /* K =  1 */
(PID.TID 0000.0001)                 2.953000000000000E+02,      /* K =  2 */
(PID.TID 0000.0001)                 2.954000000000000E+02,      /* K =  3 */
(PID.TID 0000.0001)                 2.956000000000000E+02,      /* K =  4 */
(PID.TID 0000.0001)                 2.958000000000000E+02,      /* K =  5 */
(PID.TID 0000.0001)                 2.960000000000000E+02,      /* K =  6 */
(PID.TID 0000.0001)                 2.962000000000000E+02,      /* K =  7 */
(PID.TID 0000.0001)                 2.964000000000000E+02,      /* K =  8 */
(PID.TID 0000.0001)                 2.966000000000000E+02,      /* K =  9 */
(PID.TID 0000.0001)                 2.968000000000000E+02,      /* K = 10 */
(PID.TID 0000.0001)                 2.970000000000000E+02,      /* K = 11 */
(PID.TID 0000.0001)                 2.973000000000000E+02,      /* K = 12 */
(PID.TID 0000.0001)                 2.975000000000000E+02,      /* K = 13 */
(PID.TID 0000.0001)                 2.977000000000000E+02,      /* K = 14 */
(PID.TID 0000.0001)                 2.980000000000000E+02,      /* K = 15 */
(PID.TID 0000.0001)                 2.983000000000000E+02,      /* K = 16 */
(PID.TID 0000.0001)                 2.985000000000000E+02,      /* K = 17 */
(PID.TID 0000.0001)                 2.988000000000000E+02,      /* K = 18 */
(PID.TID 0000.0001)                 2.991000000000000E+02,      /* K = 19 */
(PID.TID 0000.0001)                 2.995000000000000E+02,      /* K = 20 */
(PID.TID 0000.0001)                 2.998000000000000E+02,      /* K = 21 */
(PID.TID 0000.0001)                 3.001000000000000E+02,      /* K = 22 */
(PID.TID 0000.0001)                 3.005000000000000E+02,      /* K = 23 */
(PID.TID 0000.0001)                 3.009000000000000E+02,      /* K = 24 */
(PID.TID 0000.0001)                 3.015000000000000E+02,      /* K = 25 */
(PID.TID 0000.0001)                 3.023000000000000E+02,      /* K = 26 */
(PID.TID 0000.0001)                 3.034000000000000E+02,      /* K = 27 */
(PID.TID 0000.0001)                 3.049000000000000E+02,      /* K = 28 */
(PID.TID 0000.0001)                 3.068000000000000E+02,      /* K = 29 */
(PID.TID 0000.0001)                 3.094000000000000E+02,      /* K = 30 */
(PID.TID 0000.0001)                 3.129000000000000E+02,      /* K = 31 */
(PID.TID 0000.0001)                 3.178000000000000E+02,      /* K = 32 */
(PID.TID 0000.0001)                 3.247000000000000E+02,      /* K = 33 */
(PID.TID 0000.0001)                 3.361000000000000E+02,      /* K = 34 */
(PID.TID 0000.0001)                 3.526000000000000E+02,      /* K = 35 */
(PID.TID 0000.0001)                 3.734000000000000E+02,      /* K = 36 */
(PID.TID 0000.0001)                 4.012000000000000E+02,      /* K = 37 */
(PID.TID 0000.0001)                 4.416000000000000E+02,      /* K = 38 */
(PID.TID 0000.0001)                 5.110000000000000E+02,      /* K = 39 */
(PID.TID 0000.0001)                 6.995000000000000E+02       /* K = 40 */
(PID.TID 0000.0001)     ;
(PID.TID 0000.0001) sRef =   /* Reference salinity profile ( psu ) */
(PID.TID 0000.0001)    40 @  0.000000000000000E+00              /* K =  1: 40 */
(PID.TID 0000.0001)     ;
(PID.TID 0000.0001) useStrainTensionVisc= /* Use StrainTension Form of Viscous Operator */
(PID.TID 0000.0001)                   F
(PID.TID 0000.0001)     ;
(PID.TID 0000.0001) useVariableVisc = /* Use variable horizontal viscosity */
(PID.TID 0000.0001)                   F
(PID.TID 0000.0001)     ;
(PID.TID 0000.0001) useHarmonicVisc = /* Use harmonic horizontal viscosity */
(PID.TID 0000.0001)                   F
(PID.TID 0000.0001)     ;
(PID.TID 0000.0001) useBiharmonicVisc= /* Use biharmonic horiz.  viscosity */
(PID.TID 0000.0001)                   F
(PID.TID 0000.0001)     ;
(PID.TID 0000.0001) useSmag3D = /* Use isotropic 3-D Smagorinsky viscosity */
(PID.TID 0000.0001)                   F
(PID.TID 0000.0001)     ;
(PID.TID 0000.0001) viscAh  =   /* Lateral harmonic viscosity ( m^2/s ) */
(PID.TID 0000.0001)                 0.000000000000000E+00
(PID.TID 0000.0001)     ;
(PID.TID 0000.0001) viscA4  =   /* Lateral biharmonic viscosity ( m^4/s ) */
(PID.TID 0000.0001)                 0.000000000000000E+00
(PID.TID 0000.0001)     ;
(PID.TID 0000.0001) no_slip_sides =  /* Viscous BCs: No-slip sides */
(PID.TID 0000.0001)                   F
(PID.TID 0000.0001)     ;
(PID.TID 0000.0001) sideDragFactor = /* side-drag scaling factor (non-dim) */
(PID.TID 0000.0001)                 2.000000000000000E+00
(PID.TID 0000.0001)     ;
(PID.TID 0000.0001) viscArNr = /* vertical profile of vertical viscosity (Pa^2/s )*/
(PID.TID 0000.0001)    40 @  0.000000000000000E+00              /* K =  1: 40 */
(PID.TID 0000.0001)     ;
(PID.TID 0000.0001) no_slip_bottom =  /* Viscous BCs: No-slip bottom */
(PID.TID 0000.0001)                   F
(PID.TID 0000.0001)     ;
(PID.TID 0000.0001) bottomDragLinear = /* linear bottom-drag coefficient ( m/s ) */
(PID.TID 0000.0001)                 0.000000000000000E+00
(PID.TID 0000.0001)     ;
(PID.TID 0000.0001) bottomDragQuadratic = /* quadratic bottom-drag coefficient (-) */
(PID.TID 0000.0001)                 0.000000000000000E+00
(PID.TID 0000.0001)     ;
(PID.TID 0000.0001) diffKhT =   /* Laplacian diffusion of heat laterally ( m^2/s ) */
(PID.TID 0000.0001)                 0.000000000000000E+00
(PID.TID 0000.0001)     ;
(PID.TID 0000.0001) diffK4T =   /* Biharmonic diffusion of heat laterally ( m^4/s ) */
(PID.TID 0000.0001)                 0.000000000000000E+00
(PID.TID 0000.0001)     ;
(PID.TID 0000.0001) diffKhS =   /* Laplacian diffusion of salt laterally ( m^2/s ) */
(PID.TID 0000.0001)                 0.000000000000000E+00
(PID.TID 0000.0001)     ;
(PID.TID 0000.0001) diffK4S =   /* Biharmonic diffusion of salt laterally ( m^4/s ) */
(PID.TID 0000.0001)                 0.000000000000000E+00
(PID.TID 0000.0001)     ;
(PID.TID 0000.0001) diffKrNrT = /* vertical profile of vertical diffusion of Temp (Pa^2/s )*/
(PID.TID 0000.0001)    40 @  0.000000000000000E+00              /* K =  1: 40 */
(PID.TID 0000.0001)     ;
(PID.TID 0000.0001) diffKrNrS = /* vertical profile of vertical diffusion of Salt (Pa^2/s )*/
(PID.TID 0000.0001)    40 @  0.000000000000000E+00              /* K =  1: 40 */
(PID.TID 0000.0001)     ;
(PID.TID 0000.0001) diffKrBL79surf = /* Surface diffusion for Bryan and Lewis 79 ( m^2/s ) */
(PID.TID 0000.0001)                 0.000000000000000E+00
(PID.TID 0000.0001)     ;
(PID.TID 0000.0001) diffKrBL79deep = /* Deep diffusion for Bryan and Lewis 1979 ( m^2/s ) */
(PID.TID 0000.0001)                 0.000000000000000E+00
(PID.TID 0000.0001)     ;
(PID.TID 0000.0001) diffKrBL79scl = /* Depth scale for Bryan and Lewis 1979 ( m ) */
(PID.TID 0000.0001)                 2.000000000000000E+02
(PID.TID 0000.0001)     ;
(PID.TID 0000.0001) diffKrBL79Ho = /* Turning depth for Bryan and Lewis 1979 ( m ) */
(PID.TID 0000.0001)                -2.000000000000000E+03
(PID.TID 0000.0001)     ;
(PID.TID 0000.0001) ivdc_kappa = /* Implicit Vertical Diffusivity for Convection (Pa^2/s) */
(PID.TID 0000.0001)                 0.000000000000000E+00
(PID.TID 0000.0001)     ;
(PID.TID 0000.0001) hMixCriteria=  /* Criteria for mixed-layer diagnostic */
(PID.TID 0000.0001)                -8.000000000000000E-01
(PID.TID 0000.0001)     ;
(PID.TID 0000.0001) dRhoSmall =  /* Parameter for mixed-layer diagnostic */
(PID.TID 0000.0001)                 1.000000000000000E-06
(PID.TID 0000.0001)     ;
(PID.TID 0000.0001) hMixSmooth=  /* Smoothing parameter for mixed-layer diagnostic */
(PID.TID 0000.0001)                 0.000000000000000E+00
(PID.TID 0000.0001)     ;
(PID.TID 0000.0001) eosType =  /* Type of Equation of State */
(PID.TID 0000.0001)               'IDEALG'
(PID.TID 0000.0001)     ;
(PID.TID 0000.0001) celsius2K = /* 0 degree Celsius converted to Kelvin ( K ) */
(PID.TID 0000.0001)                 2.731500000000000E+02
(PID.TID 0000.0001)     ;
(PID.TID 0000.0001) atm_Rd =    /* gas constant for dry air ( J/kg/K ) */
(PID.TID 0000.0001)                 2.868571428571428E+02
(PID.TID 0000.0001)     ;
(PID.TID 0000.0001) atm_Cp =    /* specific heat (Cp) of dry air ( J/kg/K ) */
(PID.TID 0000.0001)                 1.004000000000000E+03
(PID.TID 0000.0001)     ;
(PID.TID 0000.0001) atm_kappa = /* kappa (=Rd/Cp ) of dry air */
(PID.TID 0000.0001)                 2.857142857142857E-01
(PID.TID 0000.0001)     ;
(PID.TID 0000.0001) atm_Rq =  /* water vap. specific vol. anomaly relative to dry air */
(PID.TID 0000.0001)                 6.078000000000000E-01
(PID.TID 0000.0001)     ;
(PID.TID 0000.0001) atm_Po =    /* standard reference pressure ( Pa ) */
(PID.TID 0000.0001)                 1.000000000000000E+05
(PID.TID 0000.0001)     ;
(PID.TID 0000.0001) thetaConst= /* constant reference for potential temperature ( K ) */
(PID.TID 0000.0001)                 2.951000000000000E+02
(PID.TID 0000.0001)     ;
(PID.TID 0000.0001) integr_GeoPot =  /* select how the geopotential is integrated */
(PID.TID 0000.0001)                       2
(PID.TID 0000.0001)     ;
(PID.TID 0000.0001) selectFindRoSurf=  /* select how Surf.Ref. pressure is defined */
(PID.TID 0000.0001)                       0
(PID.TID 0000.0001)     ;
(PID.TID 0000.0001) rhoConst  = /* Reference density (Boussinesq)  ( kg/m^3 ) */
(PID.TID 0000.0001)                 9.998000000000000E+02
(PID.TID 0000.0001)     ;
(PID.TID 0000.0001) rhoFacC = /* normalized Reference density @ cell-Center (-) */
(PID.TID 0000.0001)    40 @  1.000000000000000E+00              /* K =  1: 40 */
(PID.TID 0000.0001)     ;
(PID.TID 0000.0001) rhoFacF = /* normalized Reference density @ W-Interface (-) */
(PID.TID 0000.0001)    41 @  1.000000000000000E+00              /* K =  1: 41 */
(PID.TID 0000.0001)     ;
(PID.TID 0000.0001) rhoConstFresh = /* Fresh-water reference density ( kg/m^3 ) */
(PID.TID 0000.0001)                 9.998000000000000E+02
(PID.TID 0000.0001)     ;
(PID.TID 0000.0001) gravity =   /* Gravitational acceleration ( m/s^2 ) */
(PID.TID 0000.0001)                 9.810000000000000E+00
(PID.TID 0000.0001)     ;
(PID.TID 0000.0001) gBaro =   /* Barotropic gravity ( m/s^2 ) */
(PID.TID 0000.0001)                 9.810000000000000E+00
(PID.TID 0000.0001)     ;
(PID.TID 0000.0001) rotationPeriod =   /* Rotation Period ( s ) */
(PID.TID 0000.0001)                 8.616400000000000E+04
(PID.TID 0000.0001)     ;
(PID.TID 0000.0001) omega =   /* Angular velocity ( rad/s ) */
(PID.TID 0000.0001)                 7.292123516990375E-05
(PID.TID 0000.0001)     ;
(PID.TID 0000.0001) f0 =   /* Reference coriolis parameter ( 1/s ) */
(PID.TID 0000.0001)                 1.000000000000000E-04
(PID.TID 0000.0001)     ;
(PID.TID 0000.0001) beta =   /* Beta ( 1/(m.s) ) */
(PID.TID 0000.0001)                 9.999999999999999E-12
(PID.TID 0000.0001)     ;
(PID.TID 0000.0001) fPrime =   /* Second coriolis parameter ( 1/s ) */
(PID.TID 0000.0001)                 0.000000000000000E+00
(PID.TID 0000.0001)     ;
(PID.TID 0000.0001) rigidLid =   /* Rigid lid on/off flag */
(PID.TID 0000.0001)                   F
(PID.TID 0000.0001)     ;
(PID.TID 0000.0001) implicitFreeSurface =   /* Implicit free surface on/off flag */
(PID.TID 0000.0001)                   T
(PID.TID 0000.0001)     ;
(PID.TID 0000.0001) freeSurfFac =   /* Implicit free surface factor */
(PID.TID 0000.0001)                 1.000000000000000E+00
(PID.TID 0000.0001)     ;
(PID.TID 0000.0001) implicSurfPress =  /* Surface Pressure implicit factor (0-1)*/
(PID.TID 0000.0001)                 1.000000000000000E+00
(PID.TID 0000.0001)     ;
(PID.TID 0000.0001) implicDiv2Dflow =  /* Barot. Flow Div. implicit factor (0-1)*/
(PID.TID 0000.0001)                 1.000000000000000E+00
(PID.TID 0000.0001)     ;
(PID.TID 0000.0001) uniformLin_PhiSurf = /* use uniform Bo_surf on/off flag*/
(PID.TID 0000.0001)                   F
(PID.TID 0000.0001)     ;
(PID.TID 0000.0001) uniformFreeSurfLev = /* free-surface level-index is uniform */
(PID.TID 0000.0001)                   F
(PID.TID 0000.0001)     ;
(PID.TID 0000.0001) hFacMin =   /* minimum partial cell factor (hFac) */
(PID.TID 0000.0001)                 5.000000000000000E-01
(PID.TID 0000.0001)     ;
(PID.TID 0000.0001) hFacMinDr = /* minimum partial cell thickness (Pa) */
(PID.TID 0000.0001)                 0.000000000000000E+00
(PID.TID 0000.0001)     ;
(PID.TID 0000.0001) exactConserv =  /* Exact Volume Conservation on/off flag*/
(PID.TID 0000.0001)                   T
(PID.TID 0000.0001)     ;
(PID.TID 0000.0001) linFSConserveTr = /* Tracer correction for Lin Free Surface on/off flag*/
(PID.TID 0000.0001)                   F
(PID.TID 0000.0001)     ;
(PID.TID 0000.0001) nonlinFreeSurf = /* Non-linear Free Surf. options (-1,0,1,2,3)*/
(PID.TID 0000.0001)                       4
(PID.TID 0000.0001)      -1,0= Off ; 1,2,3= On, 2=+rescale gU,gV, 3=+update cg2d solv.
(PID.TID 0000.0001)     ;
(PID.TID 0000.0001) hFacInf =   /* lower threshold for hFac (nonlinFreeSurf only)*/
(PID.TID 0000.0001)                 2.000000000000000E-01
(PID.TID 0000.0001)     ;
(PID.TID 0000.0001) hFacSup =   /* upper threshold for hFac (nonlinFreeSurf only)*/
(PID.TID 0000.0001)                 2.000000000000000E+00
(PID.TID 0000.0001)     ;
(PID.TID 0000.0001) select_rStar = /* r* Vertical coord. options (=0 r coord.; >0 uses r*)*/
(PID.TID 0000.0001)                       2
(PID.TID 0000.0001)     ;
(PID.TID 0000.0001) useRealFreshWaterFlux = /* Real Fresh Water Flux on/off flag*/
(PID.TID 0000.0001)                   F
(PID.TID 0000.0001)     ;
(PID.TID 0000.0001) temp_EvPrRn = /* Temp. of Evap/Prec/R (UNSET=use local T)(oC)*/
(PID.TID 0000.0001)                 1.234567000000000E+05
(PID.TID 0000.0001)     ;
(PID.TID 0000.0001) salt_EvPrRn = /* Salin. of Evap/Prec/R (UNSET=use local S)(psu)*/
(PID.TID 0000.0001)                 0.000000000000000E+00
(PID.TID 0000.0001)     ;
(PID.TID 0000.0001) selectAddFluid = /* option for mass source/sink of fluid (=0: off) */
(PID.TID 0000.0001)                       0
(PID.TID 0000.0001)     ;
(PID.TID 0000.0001) temp_addMass = /* Temp. of addMass array (UNSET=use local T)(oC)*/
(PID.TID 0000.0001)                 1.234567000000000E+05
(PID.TID 0000.0001)     ;
(PID.TID 0000.0001) salt_addMass = /* Salin. of addMass array (UNSET=use local S)(psu)*/
(PID.TID 0000.0001)                 0.000000000000000E+00
(PID.TID 0000.0001)     ;
(PID.TID 0000.0001) convertFW2Salt = /* convert F.W. Flux to Salt Flux (-1=use local S)(psu)*/
(PID.TID 0000.0001)                 3.500000000000000E+01
(PID.TID 0000.0001)     ;
(PID.TID 0000.0001) use3Dsolver = /* use 3-D pressure solver on/off flag */
(PID.TID 0000.0001)                   F
(PID.TID 0000.0001)     ;
(PID.TID 0000.0001) nonHydrostatic =  /* Non-Hydrostatic on/off flag */
(PID.TID 0000.0001)                   F
(PID.TID 0000.0001)     ;
(PID.TID 0000.0001) nh_Am2 = /* Non-Hydrostatic terms scaling factor */
(PID.TID 0000.0001)                 1.000000000000000E+00
(PID.TID 0000.0001)     ;
(PID.TID 0000.0001) implicitNHPress = /* Non-Hyd Pressure implicit factor (0-1)*/
(PID.TID 0000.0001)                 1.000000000000000E+00
(PID.TID 0000.0001)     ;
(PID.TID 0000.0001) selectNHfreeSurf = /* Non-Hyd (free-)Surface option */
(PID.TID 0000.0001)                       0
(PID.TID 0000.0001)     ;
(PID.TID 0000.0001) quasiHydrostatic = /* Quasi-Hydrostatic on/off flag */
(PID.TID 0000.0001)                   F
(PID.TID 0000.0001)     ;
(PID.TID 0000.0001) calc_wVelocity = /* vertical velocity calculation on/off flag */
(PID.TID 0000.0001)                   T
(PID.TID 0000.0001)     ;
(PID.TID 0000.0001) momStepping =  /* Momentum equation on/off flag */
(PID.TID 0000.0001)                   T
(PID.TID 0000.0001)     ;
(PID.TID 0000.0001) vectorInvariantMomentum= /* Vector-Invariant Momentum on/off */
(PID.TID 0000.0001)                   T
(PID.TID 0000.0001)     ;
(PID.TID 0000.0001) momAdvection =  /* Momentum advection on/off flag */
(PID.TID 0000.0001)                   T
(PID.TID 0000.0001)     ;
(PID.TID 0000.0001) momViscosity =  /* Momentum viscosity on/off flag */
(PID.TID 0000.0001)                   T
(PID.TID 0000.0001)     ;
(PID.TID 0000.0001) momImplVertAdv= /* Momentum implicit vert. advection on/off*/
(PID.TID 0000.0001)                   F
(PID.TID 0000.0001)     ;
(PID.TID 0000.0001) implicitViscosity = /* Implicit viscosity on/off flag */
(PID.TID 0000.0001)                   F
(PID.TID 0000.0001)     ;
(PID.TID 0000.0001) metricTerms =  /* metric-Terms on/off flag */
(PID.TID 0000.0001)                   F
(PID.TID 0000.0001)     ;
(PID.TID 0000.0001) useNHMTerms = /* Non-Hydrostatic Metric-Terms on/off */
(PID.TID 0000.0001)                   F
(PID.TID 0000.0001)     ;
(PID.TID 0000.0001) selectCoriMap = /* Coriolis Map options (0,1,2,3)*/
(PID.TID 0000.0001)                       2
(PID.TID 0000.0001)     0= f-Plane ; 1= Beta-Plane ; 2= Spherical ; 3= read from file
(PID.TID 0000.0001)     ;
(PID.TID 0000.0001) use3dCoriolis = /* 3-D Coriolis on/off flag */
(PID.TID 0000.0001)                   F
(PID.TID 0000.0001)     ;
(PID.TID 0000.0001) useCoriolis =  /* Coriolis on/off flag */
(PID.TID 0000.0001)                   T
(PID.TID 0000.0001)     ;
(PID.TID 0000.0001) useCDscheme =  /* CD scheme on/off flag */
(PID.TID 0000.0001)                   F
(PID.TID 0000.0001)     ;
(PID.TID 0000.0001) useEnergyConservingCoriolis= /* Flx-Form Coriolis scheme flag */
(PID.TID 0000.0001)                   F
(PID.TID 0000.0001)     ;
(PID.TID 0000.0001) useJamartWetPoints= /* Coriolis WetPoints method flag */
(PID.TID 0000.0001)                   F
(PID.TID 0000.0001)     ;
(PID.TID 0000.0001) useJamartMomAdv= /* V.I Non-linear terms Jamart flag */
(PID.TID 0000.0001)                   F
(PID.TID 0000.0001)     ;
(PID.TID 0000.0001) useAbsVorticity= /* V.I Works with f+zeta in Coriolis */
(PID.TID 0000.0001)                   T
(PID.TID 0000.0001)     ;
(PID.TID 0000.0001) selectVortScheme= /* V.I Scheme selector for Vorticity-Term */
(PID.TID 0000.0001)                       2
(PID.TID 0000.0001)    = 0 : enstrophy (Shallow-Water Eq.) conserving scheme by Sadourny, JAS 75
(PID.TID 0000.0001)    = 1 : same as 0 with modified hFac
(PID.TID 0000.0001)    = 2 : energy conserving scheme (used by Sadourny in JAS 75 paper)
(PID.TID 0000.0001)    = 3 : energy (general) and enstrophy (2D, nonDiv.) conserving scheme
(PID.TID 0000.0001)          from Sadourny (Burridge & Haseler, ECMWF Rep.4, 1977)
(PID.TID 0000.0001)     ;
(PID.TID 0000.0001) upwindVorticity= /* V.I Upwind bias vorticity flag */
(PID.TID 0000.0001)                   F
(PID.TID 0000.0001)     ;
(PID.TID 0000.0001) highOrderVorticity= /* V.I High order vort. advect. flag */
(PID.TID 0000.0001)                   F
(PID.TID 0000.0001)     ;
(PID.TID 0000.0001) upwindShear= /* V.I Upwind vertical Shear advection flag */
(PID.TID 0000.0001)                   F
(PID.TID 0000.0001)     ;
(PID.TID 0000.0001) selectKEscheme= /* V.I Kinetic Energy scheme selector */
(PID.TID 0000.0001)                       3
(PID.TID 0000.0001)     ;
(PID.TID 0000.0001) momForcing =  /* Momentum forcing on/off flag */
(PID.TID 0000.0001)                   T
(PID.TID 0000.0001)     ;
(PID.TID 0000.0001) momPressureForcing =  /* Momentum pressure term on/off flag */
(PID.TID 0000.0001)                   T
(PID.TID 0000.0001)     ;
(PID.TID 0000.0001) implicitIntGravWave= /* Implicit Internal Gravity Wave flag */
(PID.TID 0000.0001)                   F
(PID.TID 0000.0001)     ;
(PID.TID 0000.0001) staggerTimeStep =    /* Stagger time stepping on/off flag */
(PID.TID 0000.0001)                   T
(PID.TID 0000.0001)     ;
(PID.TID 0000.0001) doResetHFactors = /* reset thickness factors @ each time-step */
(PID.TID 0000.0001)                   F
(PID.TID 0000.0001)     ;
(PID.TID 0000.0001) multiDimAdvection =  /* enable/disable Multi-Dim Advection */
(PID.TID 0000.0001)                   T
(PID.TID 0000.0001)     ;
(PID.TID 0000.0001) useMultiDimAdvec =   /* Multi-Dim Advection is/is-not used */
(PID.TID 0000.0001)                   F
(PID.TID 0000.0001)     ;
(PID.TID 0000.0001) implicitDiffusion = /* Implicit Diffusion on/off flag */
(PID.TID 0000.0001)                   F
(PID.TID 0000.0001)     ;
(PID.TID 0000.0001) tempStepping =  /* Temperature equation on/off flag */
(PID.TID 0000.0001)                   T
(PID.TID 0000.0001)     ;
(PID.TID 0000.0001) tempAdvection = /* Temperature advection on/off flag */
(PID.TID 0000.0001)                   T
(PID.TID 0000.0001)     ;
(PID.TID 0000.0001) tempImplVertAdv = /* Temp. implicit vert. advection on/off */
(PID.TID 0000.0001)                   F
(PID.TID 0000.0001)     ;
(PID.TID 0000.0001) tempForcing  =  /* Temperature forcing on/off flag */
(PID.TID 0000.0001)                   T
(PID.TID 0000.0001)     ;
(PID.TID 0000.0001) doThetaClimRelax = /* apply SST relaxation on/off flag */
(PID.TID 0000.0001)                   F
(PID.TID 0000.0001)     ;
(PID.TID 0000.0001) tempIsActiveTr = /* Temp. is a dynamically Active Tracer */
(PID.TID 0000.0001)                   T
(PID.TID 0000.0001)     ;
(PID.TID 0000.0001) saltStepping =  /* Salinity equation on/off flag */
(PID.TID 0000.0001)                   T
(PID.TID 0000.0001)     ;
(PID.TID 0000.0001) saltAdvection = /* Salinity advection on/off flag */
(PID.TID 0000.0001)                   T
(PID.TID 0000.0001)     ;
(PID.TID 0000.0001) saltImplVertAdv = /* Sali. implicit vert. advection on/off */
(PID.TID 0000.0001)                   F
(PID.TID 0000.0001)     ;
(PID.TID 0000.0001) saltForcing  =  /* Salinity forcing on/off flag */
(PID.TID 0000.0001)                   T
(PID.TID 0000.0001)     ;
(PID.TID 0000.0001) doSaltClimRelax = /* apply SSS relaxation on/off flag */
(PID.TID 0000.0001)                   F
(PID.TID 0000.0001)     ;
(PID.TID 0000.0001) saltIsActiveTr = /* Salt  is a dynamically Active Tracer */
(PID.TID 0000.0001)                   T
(PID.TID 0000.0001)     ;
(PID.TID 0000.0001)  readBinaryPrec = /* Precision used for reading binary files */
(PID.TID 0000.0001)                      64
(PID.TID 0000.0001)     ;
(PID.TID 0000.0001) writeBinaryPrec = /* Precision used for writing binary files */
(PID.TID 0000.0001)                      64
(PID.TID 0000.0001)     ;
(PID.TID 0000.0001)  globalFiles = /* write "global" (=not per tile) files */
(PID.TID 0000.0001)                   F
(PID.TID 0000.0001)     ;
(PID.TID 0000.0001)  useSingleCpuIO = /* only master MPI process does I/O */
(PID.TID 0000.0001)                   F
(PID.TID 0000.0001)     ;
(PID.TID 0000.0001)  useSingleCpuInput = /* only master process reads input */
(PID.TID 0000.0001)                   F
(PID.TID 0000.0001)     ;
(PID.TID 0000.0001) /* debLev[*]  : level of debug & auxiliary message printing */
(PID.TID 0000.0001) debLevZero =  0 ; /* level of disabled aux. msg printing */
(PID.TID 0000.0001)    debLevA =  1 ; /* level of minimum  aux. msg printing */
(PID.TID 0000.0001)    debLevB =  2 ; /* level of low aux. print (report read-file opening)*/
(PID.TID 0000.0001)    debLevC =  3 ; /* level of moderate debug prt (most pkgs debug msg) */
(PID.TID 0000.0001)    debLevD =  4 ; /* level of enhanced debug prt (add DEBUG_STATS prt) */
(PID.TID 0000.0001)    debLevE =  5 ; /* level of extensive debug printing */
(PID.TID 0000.0001) debugLevel =  /* select debug printing level */
(PID.TID 0000.0001)                       2
(PID.TID 0000.0001)     ;
(PID.TID 0000.0001) //
(PID.TID 0000.0001) // Elliptic solver(s) paramters ( PARM02 in namelist )
(PID.TID 0000.0001) //
(PID.TID 0000.0001) cg2dMaxIters =   /* Upper limit on 2d con. grad iterations  */
(PID.TID 0000.0001)                     200
(PID.TID 0000.0001)     ;
(PID.TID 0000.0001) cg2dChkResFreq =   /* 2d con. grad convergence test frequency */
(PID.TID 0000.0001)                       1
(PID.TID 0000.0001)     ;
(PID.TID 0000.0001) cg2dUseMinResSol= /* use cg2d last-iter(=0) / min-resid.(=1) solution */
(PID.TID 0000.0001)                       0
(PID.TID 0000.0001)     ;
(PID.TID 0000.0001) cg2dTargetResidual =   /* 2d con. grad target residual  */
(PID.TID 0000.0001)                 1.000000000000000E-07
(PID.TID 0000.0001)     ;
(PID.TID 0000.0001) cg2dTargetResWunit =   /* CG2d target residual [W units] */
(PID.TID 0000.0001)                 1.000000000000000E-17
(PID.TID 0000.0001)     ;
(PID.TID 0000.0001) cg2dPreCondFreq =   /* Freq. for updating cg2d preconditioner */
(PID.TID 0000.0001)                       1
(PID.TID 0000.0001)     ;
(PID.TID 0000.0001) useSRCGSolver =  /* use single reduction CG solver(s) */
(PID.TID 0000.0001)                   F
(PID.TID 0000.0001)     ;
(PID.TID 0000.0001) printResidualFreq = /* Freq. for printing CG residual */
(PID.TID 0000.0001)                       0
(PID.TID 0000.0001)     ;
(PID.TID 0000.0001) //
(PID.TID 0000.0001) // Time stepping paramters ( PARM03 in namelist )
(PID.TID 0000.0001) //
(PID.TID 0000.0001) deltaTMom =   /* Momentum equation timestep ( s ) */
(PID.TID 0000.0001)                 1.200000000000000E+02
(PID.TID 0000.0001)     ;
(PID.TID 0000.0001) deltaTFreeSurf = /* FreeSurface equation timestep ( s ) */
(PID.TID 0000.0001)                 1.200000000000000E+02
(PID.TID 0000.0001)     ;
(PID.TID 0000.0001) dTtracerLev =  /* Tracer equation timestep ( s ) */
(PID.TID 0000.0001)    40 @  1.200000000000000E+02              /* K =  1: 40 */
(PID.TID 0000.0001)     ;
(PID.TID 0000.0001) deltaTClock  =   /* Model clock timestep ( s ) */
(PID.TID 0000.0001)                 1.200000000000000E+02
(PID.TID 0000.0001)     ;
(PID.TID 0000.0001) cAdjFreq =   /* Convective adjustment interval ( s ) */
(PID.TID 0000.0001)                 0.000000000000000E+00
(PID.TID 0000.0001)     ;
(PID.TID 0000.0001) momForcingOutAB = /* =1: take Momentum Forcing out of Adams-Bash. stepping */
(PID.TID 0000.0001)                       1
(PID.TID 0000.0001)     ;
(PID.TID 0000.0001) tracForcingOutAB = /* =1: take T,S,pTr Forcing out of Adams-Bash. stepping */
(PID.TID 0000.0001)                       1
(PID.TID 0000.0001)     ;
(PID.TID 0000.0001) momDissip_In_AB = /* put Dissipation Tendency in Adams-Bash. stepping */
(PID.TID 0000.0001)                   T
(PID.TID 0000.0001)     ;
(PID.TID 0000.0001) doAB_onGtGs = /* apply AB on Tendencies (rather than on T,S)*/
(PID.TID 0000.0001)                   T
(PID.TID 0000.0001)     ;
(PID.TID 0000.0001) abEps =   /* Adams-Bashforth-2 stabilizing weight */
(PID.TID 0000.0001)                 1.000000000000000E-01
(PID.TID 0000.0001)     ;
(PID.TID 0000.0001) pickupStrictlyMatch= /* stop if pickup do not strictly match */
(PID.TID 0000.0001)                   T
(PID.TID 0000.0001)     ;
(PID.TID 0000.0001) nIter0   =   /* Run starting timestep number */
(PID.TID 0000.0001)                       0
(PID.TID 0000.0001)     ;
(PID.TID 0000.0001) nTimeSteps = /* Number of timesteps */
(PID.TID 0000.0001)                      15
(PID.TID 0000.0001)     ;
(PID.TID 0000.0001) nEndIter =   /* Run ending timestep number */
(PID.TID 0000.0001)                      15
(PID.TID 0000.0001)     ;
(PID.TID 0000.0001) baseTime =   /* Model base time ( s ) */
(PID.TID 0000.0001)                 0.000000000000000E+00
(PID.TID 0000.0001)     ;
(PID.TID 0000.0001) startTime =  /* Run start time ( s ) */
(PID.TID 0000.0001)                 0.000000000000000E+00
(PID.TID 0000.0001)     ;
(PID.TID 0000.0001) endTime  =   /* Integration ending time ( s ) */
(PID.TID 0000.0001)                 1.800000000000000E+03
(PID.TID 0000.0001)     ;
(PID.TID 0000.0001) pChkPtFreq = /* Permanent restart/pickup file interval ( s ) */
(PID.TID 0000.0001)                 0.000000000000000E+00
(PID.TID 0000.0001)     ;
(PID.TID 0000.0001) chkPtFreq  = /* Rolling restart/pickup file interval ( s ) */
(PID.TID 0000.0001)                 0.000000000000000E+00
(PID.TID 0000.0001)     ;
(PID.TID 0000.0001) pickup_write_mdsio =   /* Model IO flag. */
(PID.TID 0000.0001)                   T
(PID.TID 0000.0001)     ;
(PID.TID 0000.0001) pickup_read_mdsio =   /* Model IO flag. */
(PID.TID 0000.0001)                   T
(PID.TID 0000.0001)     ;
(PID.TID 0000.0001) pickup_write_immed =   /* Model IO flag. */
(PID.TID 0000.0001)                   F
(PID.TID 0000.0001)     ;
(PID.TID 0000.0001) writePickupAtEnd =   /* Model IO flag. */
(PID.TID 0000.0001)                   F
(PID.TID 0000.0001)     ;
(PID.TID 0000.0001) dumpFreq =   /* Model state write out interval ( s ). */
(PID.TID 0000.0001)                 0.000000000000000E+00
(PID.TID 0000.0001)     ;
(PID.TID 0000.0001) dumpInitAndLast= /* write out Initial & Last iter. model state */
(PID.TID 0000.0001)                   F
(PID.TID 0000.0001)     ;
(PID.TID 0000.0001) snapshot_mdsio =   /* Model IO flag. */
(PID.TID 0000.0001)                   T
(PID.TID 0000.0001)     ;
(PID.TID 0000.0001) monitorFreq =   /* Monitor output interval ( s ). */
(PID.TID 0000.0001)                 1.200000000000000E+02
(PID.TID 0000.0001)     ;
(PID.TID 0000.0001) monitorSelect = /* select group of variables to monitor */
(PID.TID 0000.0001)                       2
(PID.TID 0000.0001)     ;
(PID.TID 0000.0001) monitor_stdio =   /* Model IO flag. */
(PID.TID 0000.0001)                   T
(PID.TID 0000.0001)     ;
(PID.TID 0000.0001) externForcingPeriod =   /* forcing period (s) */
(PID.TID 0000.0001)                 0.000000000000000E+00
(PID.TID 0000.0001)     ;
(PID.TID 0000.0001) externForcingCycle =   /* period of the cyle (s). */
(PID.TID 0000.0001)                 0.000000000000000E+00
(PID.TID 0000.0001)     ;
(PID.TID 0000.0001) tauThetaClimRelax =   /* relaxation time scale (s) */
(PID.TID 0000.0001)                 0.000000000000000E+00
(PID.TID 0000.0001)     ;
(PID.TID 0000.0001) tauSaltClimRelax =   /* relaxation time scale (s) */
(PID.TID 0000.0001)                 0.000000000000000E+00
(PID.TID 0000.0001)     ;
(PID.TID 0000.0001) latBandClimRelax =   /* max. Lat. where relaxation */
(PID.TID 0000.0001)                 1.800000000000000E+02
(PID.TID 0000.0001)     ;
(PID.TID 0000.0001) //
(PID.TID 0000.0001) // Gridding paramters ( PARM04 in namelist )
(PID.TID 0000.0001) //
(PID.TID 0000.0001) usingCartesianGrid = /* Cartesian coordinates flag ( True/False ) */
(PID.TID 0000.0001)                   F
(PID.TID 0000.0001)     ;
(PID.TID 0000.0001) usingCylindricalGrid = /* Cylindrical coordinates flag ( True/False ) */
(PID.TID 0000.0001)                   F
(PID.TID 0000.0001)     ;
(PID.TID 0000.0001) usingSphericalPolarGrid = /* Spherical coordinates flag ( True/False ) */
(PID.TID 0000.0001)                   F
(PID.TID 0000.0001)     ;
(PID.TID 0000.0001) usingCurvilinearGrid = /* Curvilinear coordinates flag ( True/False ) */
(PID.TID 0000.0001)                   T
(PID.TID 0000.0001)     ;
(PID.TID 0000.0001) selectSigmaCoord = /* Hybrid-Sigma Vert. Coordinate option */
(PID.TID 0000.0001)                       0
(PID.TID 0000.0001)     ;
(PID.TID 0000.0001) Ro_SeaLevel = /* r(1) ( units of r == Pa ) */
(PID.TID 0000.0001)                 1.000000000000000E+05
(PID.TID 0000.0001)     ;
(PID.TID 0000.0001) rSigmaBnd = /* r/sigma transition ( units of r == Pa ) */
(PID.TID 0000.0001)                 1.234567000000000E+05
(PID.TID 0000.0001)     ;
(PID.TID 0000.0001) rkSign =   /* index orientation relative to vertical coordinate */
(PID.TID 0000.0001)                -1.000000000000000E+00
(PID.TID 0000.0001)     ;
(PID.TID 0000.0001) gravitySign = /* gravity orientation relative to vertical coordinate */
(PID.TID 0000.0001)                 1.000000000000000E+00
(PID.TID 0000.0001)     ;
(PID.TID 0000.0001) mass2rUnit = /* convert mass per unit area [kg/m2] to r-units [Pa] */
(PID.TID 0000.0001)                 9.810000000000000E+00
(PID.TID 0000.0001)     ;
(PID.TID 0000.0001) rUnit2mass = /* convert r-units [Pa] to mass per unit area [kg/m2] */
(PID.TID 0000.0001)                 1.019367991845056E-01
(PID.TID 0000.0001)     ;
(PID.TID 0000.0001) drC =   /* C spacing ( units of r ) */
(PID.TID 0000.0001)                 1.250000000000000E+03,      /* K =  1 */
(PID.TID 0000.0001)    39 @  2.500000000000000E+03,             /* K =  2: 40 */
(PID.TID 0000.0001)                 1.250000000000000E+03       /* K = 41 */
(PID.TID 0000.0001)     ;
(PID.TID 0000.0001) drF =   /* W spacing ( units of r ) */
(PID.TID 0000.0001)    40 @  2.500000000000000E+03              /* K =  1: 40 */
(PID.TID 0000.0001)     ;
(PID.TID 0000.0001) radius_fromHorizGrid = /* sphere Radius of input horiz. grid */
(PID.TID 0000.0001)                 6.370000000000000E+06
(PID.TID 0000.0001)     ;
(PID.TID 0000.0001) rSphere =  /* Radius ( ignored - cartesian, m - spherical ) */
(PID.TID 0000.0001)                 6.370000000000000E+06
(PID.TID 0000.0001)     ;
(PID.TID 0000.0001) deepAtmosphere = /* Deep/Shallow Atmosphere flag (True/False) */
(PID.TID 0000.0001)                   F
(PID.TID 0000.0001)     ;
(PID.TID 0000.0001) xC =  /* xC(:,1,:,1) : P-point X coord ( deg. or m if cartesian) */
(PID.TID 0000.0001)                -4.439521994760536E+01,      /* I =  1 */
(PID.TID 0000.0001)                -4.295641272275883E+01,      /* I =  2 */
(PID.TID 0000.0001)                -4.122055553388957E+01,      /* I =  3 */
(PID.TID 0000.0001)      . . .
(PID.TID 0000.0001)                 8.070819219728060E+01,      /* I = 46 */
(PID.TID 0000.0001)                 8.439652466417766E+01,      /* I = 47 */
(PID.TID 0000.0001)                 8.812739148696656E+01,      /* I = 48 */
(PID.TID 0000.0001)                 9.187260851303344E+01,      /* I = 49 */
(PID.TID 0000.0001)                 9.560347533582234E+01,      /* I = 50 */
(PID.TID 0000.0001)                 9.929180780271940E+01,      /* I = 51 */
(PID.TID 0000.0001)      . . .
(PID.TID 0000.0001)                 1.321863035748696E+02,      /* I = 94 */
(PID.TID 0000.0001)                 1.337919453120370E+02,      /* I = 95 */
(PID.TID 0000.0001)                 1.350000000000000E+02,      /* I = 96 */
(PID.TID 0000.0001)                 1.356047800523947E+02,      /* I = 97 */
(PID.TID 0000.0001)                 1.358367907661329E+02,      /* I = 98 */
(PID.TID 0000.0001)                 1.359720382181193E+02,      /* I = 99 */
(PID.TID 0000.0001)      . . .
(PID.TID 0000.0001)                -1.336511021209287E+02,      /* I =142 */
(PID.TID 0000.0001)                -1.336469399409420E+02,      /* I =143 */
(PID.TID 0000.0001)                -1.336449032499283E+02,      /* I =144 */
(PID.TID 0000.0001)                -1.336449032499283E+02,      /* I =145 */
(PID.TID 0000.0001)                -1.336469399409420E+02,      /* I =146 */
(PID.TID 0000.0001)                -1.336511021209287E+02,      /* I =147 */
(PID.TID 0000.0001)      . . .
(PID.TID 0000.0001)                 1.378136964251304E+02,      /* I =190 */
(PID.TID 0000.0001)                 1.362080546879630E+02,      /* I =191 */
(PID.TID 0000.0001)                 1.350000000000000E+02       /* I =192 */
(PID.TID 0000.0001)     ;
(PID.TID 0000.0001) yC =  /* yC(1,:,1,:) : P-point Y coord ( deg. or m if cartesian) */
(PID.TID 0000.0001)                -3.497677942598243E+01,      /* J =  1 */
(PID.TID 0000.0001)                -3.374005967394886E+01,      /* J =  2 */
(PID.TID 0000.0001)                -3.220655175667454E+01,      /* J =  3 */
(PID.TID 0000.0001)                -3.045756348838641E+01,      /* J =  4 */
(PID.TID 0000.0001)                -2.853728129852918E+01,      /* J =  5 */
(PID.TID 0000.0001)                -2.647426640173173E+01,      /* J =  6 */
(PID.TID 0000.0001)                -2.428936657094636E+01,      /* J =  7 */
(PID.TID 0000.0001)                -2.199915808312262E+01,      /* J =  8 */
(PID.TID 0000.0001)                -1.961768597440146E+01,      /* J =  9 */
(PID.TID 0000.0001)                -1.715743888281371E+01,      /* J = 10 */
(PID.TID 0000.0001)                -1.462993396899330E+01,      /* J = 11 */
(PID.TID 0000.0001)                -1.204608340464756E+01,      /* J = 12 */
(PID.TID 0000.0001)                -9.416429130284818E+00,      /* J = 13 */
(PID.TID 0000.0001)                -6.751293662992216E+00,      /* J = 14 */
(PID.TID 0000.0001)                -4.060875511835959E+00,      /* J = 15 */
(PID.TID 0000.0001)                -1.355307764409121E+00,      /* J = 16 */
(PID.TID 0000.0001)                 1.355307764409121E+00,      /* J = 17 */
(PID.TID 0000.0001)                 4.060875511835959E+00,      /* J = 18 */
(PID.TID 0000.0001)                 6.751293662992216E+00,      /* J = 19 */
(PID.TID 0000.0001)                 9.416429130284818E+00,      /* J = 20 */
(PID.TID 0000.0001)                 1.204608340464756E+01,      /* J = 21 */
(PID.TID 0000.0001)                 1.462993396899330E+01,      /* J = 22 */
(PID.TID 0000.0001)                 1.715743888281371E+01,      /* J = 23 */
(PID.TID 0000.0001)                 1.961768597440146E+01,      /* J = 24 */
(PID.TID 0000.0001)                 2.199915808312262E+01,      /* J = 25 */
(PID.TID 0000.0001)                 2.428936657094636E+01,      /* J = 26 */
(PID.TID 0000.0001)                 2.647426640173173E+01,      /* J = 27 */
(PID.TID 0000.0001)                 2.853728129852918E+01,      /* J = 28 */
(PID.TID 0000.0001)                 3.045756348838641E+01,      /* J = 29 */
(PID.TID 0000.0001)                 3.220655175667454E+01,      /* J = 30 */
(PID.TID 0000.0001)                 3.374005967394886E+01,      /* J = 31 */
(PID.TID 0000.0001)                 3.497677942598243E+01       /* J = 32 */
(PID.TID 0000.0001)     ;
(PID.TID 0000.0001) rcoord = /* P-point R coordinate (  units of r ) */
(PID.TID 0000.0001)                 9.875000000000000E+04,      /* K =  1 */
(PID.TID 0000.0001)                 9.625000000000000E+04,      /* K =  2 */
(PID.TID 0000.0001)                 9.375000000000000E+04,      /* K =  3 */
(PID.TID 0000.0001)                 9.125000000000000E+04,      /* K =  4 */
(PID.TID 0000.0001)                 8.875000000000000E+04,      /* K =  5 */
(PID.TID 0000.0001)                 8.625000000000000E+04,      /* K =  6 */
(PID.TID 0000.0001)                 8.375000000000000E+04,      /* K =  7 */
(PID.TID 0000.0001)                 8.125000000000000E+04,      /* K =  8 */
(PID.TID 0000.0001)                 7.875000000000000E+04,      /* K =  9 */
(PID.TID 0000.0001)                 7.625000000000000E+04,      /* K = 10 */
(PID.TID 0000.0001)                 7.375000000000000E+04,      /* K = 11 */
(PID.TID 0000.0001)                 7.125000000000000E+04,      /* K = 12 */
(PID.TID 0000.0001)                 6.875000000000000E+04,      /* K = 13 */
(PID.TID 0000.0001)                 6.625000000000000E+04,      /* K = 14 */
(PID.TID 0000.0001)                 6.375000000000000E+04,      /* K = 15 */
(PID.TID 0000.0001)                 6.125000000000000E+04,      /* K = 16 */
(PID.TID 0000.0001)                 5.875000000000000E+04,      /* K = 17 */
(PID.TID 0000.0001)                 5.625000000000000E+04,      /* K = 18 */
(PID.TID 0000.0001)                 5.375000000000000E+04,      /* K = 19 */
(PID.TID 0000.0001)                 5.125000000000000E+04,      /* K = 20 */
(PID.TID 0000.0001)                 4.875000000000000E+04,      /* K = 21 */
(PID.TID 0000.0001)                 4.625000000000000E+04,      /* K = 22 */
(PID.TID 0000.0001)                 4.375000000000000E+04,      /* K = 23 */
(PID.TID 0000.0001)                 4.125000000000000E+04,      /* K = 24 */
(PID.TID 0000.0001)                 3.875000000000000E+04,      /* K = 25 */
(PID.TID 0000.0001)                 3.625000000000000E+04,      /* K = 26 */
(PID.TID 0000.0001)                 3.375000000000000E+04,      /* K = 27 */
(PID.TID 0000.0001)                 3.125000000000000E+04,      /* K = 28 */
(PID.TID 0000.0001)                 2.875000000000000E+04,      /* K = 29 */
(PID.TID 0000.0001)                 2.625000000000000E+04,      /* K = 30 */
(PID.TID 0000.0001)                 2.375000000000000E+04,      /* K = 31 */
(PID.TID 0000.0001)                 2.125000000000000E+04,      /* K = 32 */
(PID.TID 0000.0001)                 1.875000000000000E+04,      /* K = 33 */
(PID.TID 0000.0001)                 1.625000000000000E+04,      /* K = 34 */
(PID.TID 0000.0001)                 1.375000000000000E+04,      /* K = 35 */
(PID.TID 0000.0001)                 1.125000000000000E+04,      /* K = 36 */
(PID.TID 0000.0001)                 8.750000000000000E+03,      /* K = 37 */
(PID.TID 0000.0001)                 6.250000000000000E+03,      /* K = 38 */
(PID.TID 0000.0001)                 3.750000000000000E+03,      /* K = 39 */
(PID.TID 0000.0001)                 1.250000000000000E+03       /* K = 40 */
(PID.TID 0000.0001)     ;
(PID.TID 0000.0001) rF =   /* W-Interf. R coordinate (  units of r ) */
(PID.TID 0000.0001)                 1.000000000000000E+05,      /* K =  1 */
(PID.TID 0000.0001)                 9.750000000000000E+04,      /* K =  2 */
(PID.TID 0000.0001)                 9.500000000000000E+04,      /* K =  3 */
(PID.TID 0000.0001)                 9.250000000000000E+04,      /* K =  4 */
(PID.TID 0000.0001)                 9.000000000000000E+04,      /* K =  5 */
(PID.TID 0000.0001)                 8.750000000000000E+04,      /* K =  6 */
(PID.TID 0000.0001)                 8.500000000000000E+04,      /* K =  7 */
(PID.TID 0000.0001)                 8.250000000000000E+04,      /* K =  8 */
(PID.TID 0000.0001)                 8.000000000000000E+04,      /* K =  9 */
(PID.TID 0000.0001)                 7.750000000000000E+04,      /* K = 10 */
(PID.TID 0000.0001)                 7.500000000000000E+04,      /* K = 11 */
(PID.TID 0000.0001)                 7.250000000000000E+04,      /* K = 12 */
(PID.TID 0000.0001)                 7.000000000000000E+04,      /* K = 13 */
(PID.TID 0000.0001)                 6.750000000000000E+04,      /* K = 14 */
(PID.TID 0000.0001)                 6.500000000000000E+04,      /* K = 15 */
(PID.TID 0000.0001)                 6.250000000000000E+04,      /* K = 16 */
(PID.TID 0000.0001)                 6.000000000000000E+04,      /* K = 17 */
(PID.TID 0000.0001)                 5.750000000000000E+04,      /* K = 18 */
(PID.TID 0000.0001)                 5.500000000000000E+04,      /* K = 19 */
(PID.TID 0000.0001)                 5.250000000000000E+04,      /* K = 20 */
(PID.TID 0000.0001)                 5.000000000000000E+04,      /* K = 21 */
(PID.TID 0000.0001)                 4.750000000000000E+04,      /* K = 22 */
(PID.TID 0000.0001)                 4.500000000000000E+04,      /* K = 23 */
(PID.TID 0000.0001)                 4.250000000000000E+04,      /* K = 24 */
(PID.TID 0000.0001)                 4.000000000000000E+04,      /* K = 25 */
(PID.TID 0000.0001)                 3.750000000000000E+04,      /* K = 26 */
(PID.TID 0000.0001)                 3.500000000000000E+04,      /* K = 27 */
(PID.TID 0000.0001)                 3.250000000000000E+04,      /* K = 28 */
(PID.TID 0000.0001)                 3.000000000000000E+04,      /* K = 29 */
(PID.TID 0000.0001)                 2.750000000000000E+04,      /* K = 30 */
(PID.TID 0000.0001)                 2.500000000000000E+04,      /* K = 31 */
(PID.TID 0000.0001)                 2.250000000000000E+04,      /* K = 32 */
(PID.TID 0000.0001)                 2.000000000000000E+04,      /* K = 33 */
(PID.TID 0000.0001)                 1.750000000000000E+04,      /* K = 34 */
(PID.TID 0000.0001)                 1.500000000000000E+04,      /* K = 35 */
(PID.TID 0000.0001)                 1.250000000000000E+04,      /* K = 36 */
(PID.TID 0000.0001)                 1.000000000000000E+04,      /* K = 37 */
(PID.TID 0000.0001)                 7.500000000000000E+03,      /* K = 38 */
(PID.TID 0000.0001)                 5.000000000000000E+03,      /* K = 39 */
(PID.TID 0000.0001)                 2.500000000000000E+03,      /* K = 40 */
(PID.TID 0000.0001)                 0.000000000000000E+00       /* K = 41 */
(PID.TID 0000.0001)     ;
(PID.TID 0000.0001) deepFacC = /* deep-model grid factor @ cell-Center (-) */
(PID.TID 0000.0001)    40 @  1.000000000000000E+00              /* K =  1: 40 */
(PID.TID 0000.0001)     ;
(PID.TID 0000.0001) deepFacF = /* deep-model grid factor @ W-Interface (-) */
(PID.TID 0000.0001)    41 @  1.000000000000000E+00              /* K =  1: 41 */
(PID.TID 0000.0001)     ;
(PID.TID 0000.0001) rVel2wUnit = /* convert units: rVel -> wSpeed (=1 if z-coord)*/
(PID.TID 0000.0001)                 8.629107324887141E-02,      /* K =  1 */
(PID.TID 0000.0001)                 8.789554435525097E-02,      /* K =  2 */
(PID.TID 0000.0001)                 8.958707285174485E-02,      /* K =  3 */
(PID.TID 0000.0001)                 9.135632543445253E-02,      /* K =  4 */
(PID.TID 0000.0001)                 9.322489597668064E-02,      /* K =  5 */
(PID.TID 0000.0001)                 9.518410825396038E-02,      /* K =  6 */
(PID.TID 0000.0001)                 9.724115789139974E-02,      /* K =  7 */
(PID.TID 0000.0001)                 9.940404644325851E-02,      /* K =  8 */
(PID.TID 0000.0001)                 1.016816995635013E-01,      /* K =  9 */
(PID.TID 0000.0001)                 1.040841068567015E-01,      /* K = 10 */
(PID.TID 0000.0001)                 1.066224882385748E-01,      /* K = 11 */
(PID.TID 0000.0001)                 1.093278889914296E-01,      /* K = 12 */
(PID.TID 0000.0001)                 1.121971647673481E-01,      /* K = 13 */
(PID.TID 0000.0001)                 1.152273209240267E-01,      /* K = 14 */
(PID.TID 0000.0001)                 1.184752359236691E-01,      /* K = 15 */
(PID.TID 0000.0001)                 1.219639446981118E-01,      /* K = 16 */
(PID.TID 0000.0001)                 1.256778876034342E-01,      /* K = 17 */
(PID.TID 0000.0001)                 1.296656690866057E-01,      /* K = 18 */
(PID.TID 0000.0001)                 1.339832291644344E-01,      /* K = 19 */
(PID.TID 0000.0001)                 1.386722588128250E-01,      /* K = 20 */
(PID.TID 0000.0001)                 1.437581146849567E-01,      /* K = 21 */
(PID.TID 0000.0001)                 1.492721071155606E-01,      /* K = 22 */
(PID.TID 0000.0001)                 1.553307147271595E-01,      /* K = 23 */
(PID.TID 0000.0001)                 1.620192314430605E-01,      /* K = 24 */
(PID.TID 0000.0001)                 1.694706487360474E-01,      /* K = 25 */
(PID.TID 0000.0001)                 1.778783754011040E-01,      /* K = 26 */
(PID.TID 0000.0001)                 1.874519323394962E-01,      /* K = 27 */
(PID.TID 0000.0001)                 1.984902707063532E-01,      /* K = 28 */
(PID.TID 0000.0001)                 2.113440200177724E-01,      /* K = 29 */
(PID.TID 0000.0001)                 2.265504904275806E-01,      /* K = 30 */
(PID.TID 0000.0001)                 2.449115784577299E-01,      /* K = 31 */
(PID.TID 0000.0001)                 2.676185844413225E-01,      /* K = 32 */
(PID.TID 0000.0001)                 2.965542048114111E-01,      /* K = 33 */
(PID.TID 0000.0001)                 3.355241677634030E-01,      /* K = 34 */
(PID.TID 0000.0001)                 3.903938719910736E-01,      /* K = 35 */
(PID.TID 0000.0001)                 4.687783677733488E-01,      /* K = 36 */
(PID.TID 0000.0001)                 5.865835402473608E-01,      /* K = 37 */
(PID.TID 0000.0001)                 7.838245492017260E-01,      /* K = 38 */
(PID.TID 0000.0001)                 1.183543929812062E+00,      /* K = 39 */
(PID.TID 0000.0001)                 2.467516267040322E+00,      /* K = 40 */
(PID.TID 0000.0001)                 1.000000000000000E+00       /* K = 41 */
(PID.TID 0000.0001)     ;
(PID.TID 0000.0001) wUnit2rVel = /* convert units: wSpeed -> rVel (=1 if z-coord)*/
(PID.TID 0000.0001)                 1.158868423290910E+01,      /* K =  1 */
(PID.TID 0000.0001)                 1.137714098405557E+01,      /* K =  2 */
(PID.TID 0000.0001)                 1.116232474360304E+01,      /* K =  3 */
(PID.TID 0000.0001)                 1.094614954404545E+01,      /* K =  4 */
(PID.TID 0000.0001)                 1.072674835968861E+01,      /* K =  5 */
(PID.TID 0000.0001)                 1.050595544092196E+01,      /* K =  6 */
(PID.TID 0000.0001)                 1.028371135930748E+01,      /* K =  7 */
(PID.TID 0000.0001)                 1.005995264559795E+01,      /* K =  8 */
(PID.TID 0000.0001)                 9.834611383295076E+00,      /* K =  9 */
(PID.TID 0000.0001)                 9.607614747338481E+00,      /* K = 10 */
(PID.TID 0000.0001)                 9.378884478501709E+00,      /* K = 11 */
(PID.TID 0000.0001)                 9.146796935577820E+00,      /* K = 12 */
(PID.TID 0000.0001)                 8.912881195113963E+00,      /* K = 13 */
(PID.TID 0000.0001)                 8.678497356189808E+00,      /* K = 14 */
(PID.TID 0000.0001)                 8.440582474503593E+00,      /* K = 15 */
(PID.TID 0000.0001)                 8.199144447772863E+00,      /* K = 16 */
(PID.TID 0000.0001)                 7.956849204495017E+00,      /* K = 17 */
(PID.TID 0000.0001)                 7.712141594951279E+00,      /* K = 18 */
(PID.TID 0000.0001)                 7.463620680262331E+00,      /* K = 19 */
(PID.TID 0000.0001)                 7.211247646508485E+00,      /* K = 20 */
(PID.TID 0000.0001)                 6.956129065767744E+00,      /* K = 21 */
(PID.TID 0000.0001)                 6.699175213128324E+00,      /* K = 22 */
(PID.TID 0000.0001)                 6.437876769938987E+00,      /* K = 23 */
(PID.TID 0000.0001)                 6.172106799256340E+00,      /* K = 24 */
(PID.TID 0000.0001)                 5.900726807020797E+00,      /* K = 25 */
(PID.TID 0000.0001)                 5.621818828427380E+00,      /* K = 26 */
(PID.TID 0000.0001)                 5.334700941833394E+00,      /* K = 27 */
(PID.TID 0000.0001)                 5.038030309704204E+00,      /* K = 28 */
(PID.TID 0000.0001)                 4.731621930518346E+00,      /* K = 29 */
(PID.TID 0000.0001)                 4.414027081171387E+00,      /* K = 30 */
(PID.TID 0000.0001)                 4.083106263481918E+00,      /* K = 31 */
(PID.TID 0000.0001)                 3.736661271441923E+00,      /* K = 32 */
(PID.TID 0000.0001)                 3.372064815725456E+00,      /* K = 33 */
(PID.TID 0000.0001)                 2.980411237336431E+00,      /* K = 34 */
(PID.TID 0000.0001)                 2.561515617291414E+00,      /* K = 35 */
(PID.TID 0000.0001)                 2.133204236257534E+00,      /* K = 36 */
(PID.TID 0000.0001)                 1.704787010522495E+00,      /* K = 37 */
(PID.TID 0000.0001)                 1.275795713490263E+00,      /* K = 38 */
(PID.TID 0000.0001)                 8.449200530805752E-01,      /* K = 39 */
(PID.TID 0000.0001)                 4.052658186523149E-01,      /* K = 40 */
(PID.TID 0000.0001)                 1.000000000000000E+00       /* K = 41 */
(PID.TID 0000.0001)     ;
(PID.TID 0000.0001) dBdrRef = /* Vertical grad. of reference buoyancy [(m/s/r)^2] */
(PID.TID 0000.0001)                 0.000000000000000E+00,      /* K =  1 */
(PID.TID 0000.0001)                 2.336813593507078E-07,      /* K =  2 */
(PID.TID 0000.0001)                 1.190289811401649E-07,      /* K =  3 */
(PID.TID 0000.0001)                 2.426366039156850E-07,      /* K =  4 */
(PID.TID 0000.0001)                 2.474324615834809E-07,      /* K =  5 */
(PID.TID 0000.0001)                 2.524623173430417E-07,      /* K =  6 */
(PID.TID 0000.0001)                 2.577447796682134E-07,      /* K =  7 */
(PID.TID 0000.0001)                 2.633005433751063E-07,      /* K =  8 */
(PID.TID 0000.0001)                 2.691526957883102E-07,      /* K =  9 */
(PID.TID 0000.0001)                 2.753270791223954E-07,      /* K = 10 */
(PID.TID 0000.0001)                 2.818527216123339E-07,      /* K = 11 */
(PID.TID 0000.0001)                 4.331435298648178E-07,      /* K = 12 */
(PID.TID 0000.0001)                 2.960930262843952E-07,      /* K = 13 */
(PID.TID 0000.0001)                 3.038868665784323E-07,      /* K = 14 */
(PID.TID 0000.0001)                 4.682879838031661E-07,      /* K = 15 */
(PID.TID 0000.0001)                 4.815954336697649E-07,      /* K = 16 */
(PID.TID 0000.0001)                 3.305654981231876E-07,      /* K = 17 */
(PID.TID 0000.0001)                 5.111573783530227E-07,      /* K = 18 */
(PID.TID 0000.0001)                 5.276524105789056E-07,      /* K = 19 */
(PID.TID 0000.0001)                 7.273142875569767E-07,      /* K = 20 */
(PID.TID 0000.0001)                 5.648377945318315E-07,      /* K = 21 */
(PID.TID 0000.0001)                 5.859242148841091E-07,      /* K = 22 */
(PID.TID 0000.0001)                 8.120063175984195E-07,      /* K = 23 */
(PID.TID 0000.0001)                 8.458606605918464E-07,      /* K = 24 */
(PID.TID 0000.0001)                 1.324970966072957E-06,      /* K = 25 */
(PID.TID 0000.0001)                 1.850024800896136E-06,      /* K = 26 */
(PID.TID 0000.0001)                 2.672373373653330E-06,      /* K = 27 */
(PID.TID 0000.0001)                 3.842402451980758E-06,      /* K = 28 */
(PID.TID 0000.0001)                 5.153687255998059E-06,      /* K = 29 */
(PID.TID 0000.0001)                 7.505142287600500E-06,      /* K = 30 */
(PID.TID 0000.0001)                 1.081579275302826E-05,      /* K = 31 */
(PID.TID 0000.0001)                 1.632760204610399E-05,      /* K = 32 */
(PID.TID 0000.0001)                 2.501415296003277E-05,      /* K = 33 */
(PID.TID 0000.0001)                 4.547479513248670E-05,      /* K = 34 */
(PID.TID 0000.0001)                 7.350773985229435E-05,      /* K = 35 */
(PID.TID 0000.0001)                 1.056192722413888E-04,      /* K = 36 */
(PID.TID 0000.0001)                 1.657485803253359E-04,      /* K = 37 */
(PID.TID 0000.0001)                 2.965682329250177E-04,      /* K = 38 */
(PID.TID 0000.0001)                 6.856085589377808E-04,      /* K = 39 */
(PID.TID 0000.0001)                 3.192589456878244E-03       /* K = 40 */
(PID.TID 0000.0001)     ;
(PID.TID 0000.0001) rotateGrid = /* use rotated grid ( True/False ) */
(PID.TID 0000.0001)                   F
(PID.TID 0000.0001)     ;
(PID.TID 0000.0001) phiEuler = /* Euler angle, rotation about original z-coordinate [rad] */
(PID.TID 0000.0001)                 0.000000000000000E+00
(PID.TID 0000.0001)     ;
(PID.TID 0000.0001) thetaEuler = /* Euler angle, rotation about new x-coordinate [rad] */
(PID.TID 0000.0001)                 0.000000000000000E+00
(PID.TID 0000.0001)     ;
(PID.TID 0000.0001) psiEuler = /* Euler angle, rotation about new z-coordinate [rad] */
(PID.TID 0000.0001)                 0.000000000000000E+00
(PID.TID 0000.0001)     ;
(PID.TID 0000.0001) dxF =  /* dxF(:,1,:,1) ( units: m ) */
(PID.TID 0000.0001)                 1.202082051331828E+05,      /* I =  1 */
(PID.TID 0000.0001)                 1.563594089971120E+05,      /* I =  2 */
(PID.TID 0000.0001)                 1.835530058121492E+05,      /* I =  3 */
(PID.TID 0000.0001)      . . .
(PID.TID 0000.0001)                 2.978501920522794E+05,      /* I = 46 */
(PID.TID 0000.0001)                 3.000967749619962E+05,      /* I = 47 */
(PID.TID 0000.0001)                 3.012190981969055E+05,      /* I = 48 */
(PID.TID 0000.0001)                 3.012190981969055E+05,      /* I = 49 */
(PID.TID 0000.0001)                 3.000967749619962E+05,      /* I = 50 */
(PID.TID 0000.0001)                 2.978501920522794E+05,      /* I = 51 */
(PID.TID 0000.0001)      . . .
(PID.TID 0000.0001)                 1.835530058121492E+05,      /* I = 94 */
(PID.TID 0000.0001)                 1.563594089971120E+05,      /* I = 95 */
(PID.TID 0000.0001)                 1.202082051331828E+05,      /* I = 96 */
(PID.TID 0000.0001)                 1.202082051331828E+05,      /* I = 97 */
(PID.TID 0000.0001)                 1.563594089971120E+05,      /* I = 98 */
(PID.TID 0000.0001)                 1.835530058121492E+05,      /* I = 99 */
(PID.TID 0000.0001)      . . .
(PID.TID 0000.0001)                 2.978501920522794E+05,      /* I =142 */
(PID.TID 0000.0001)                 3.000967749619962E+05,      /* I =143 */
(PID.TID 0000.0001)                 3.012190981969055E+05,      /* I =144 */
(PID.TID 0000.0001)                 3.012190981969055E+05,      /* I =145 */
(PID.TID 0000.0001)                 3.000967749619962E+05,      /* I =146 */
(PID.TID 0000.0001)                 2.978501920522794E+05,      /* I =147 */
(PID.TID 0000.0001)      . . .
(PID.TID 0000.0001)                 1.835530058121492E+05,      /* I =190 */
(PID.TID 0000.0001)                 1.563594089971120E+05,      /* I =191 */
(PID.TID 0000.0001)                 1.202082051331828E+05       /* I =192 */
(PID.TID 0000.0001)     ;
(PID.TID 0000.0001) dxF =  /* dxF(1,:,1,:) ( units: m ) */
(PID.TID 0000.0001)                 1.202082051331828E+05,      /* J =  1 */
(PID.TID 0000.0001)                 1.572908084538706E+05,      /* J =  2 */
(PID.TID 0000.0001)                 1.840412227747703E+05,      /* J =  3 */
(PID.TID 0000.0001)                 2.048868197919576E+05,      /* J =  4 */
(PID.TID 0000.0001)                 2.220405216043041E+05,      /* J =  5 */
(PID.TID 0000.0001)                 2.365892017348392E+05,      /* J =  6 */
(PID.TID 0000.0001)                 2.491250781852558E+05,      /* J =  7 */
(PID.TID 0000.0001)                 2.599949918261881E+05,      /* J =  8 */
(PID.TID 0000.0001)                 2.694110134598581E+05,      /* J =  9 */
(PID.TID 0000.0001)                 2.775055554645015E+05,      /* J = 10 */
(PID.TID 0000.0001)                 2.843615645344775E+05,      /* J = 11 */
(PID.TID 0000.0001)                 2.900303768613599E+05,      /* J = 12 */
(PID.TID 0000.0001)                 2.945429307892709E+05,      /* J = 13 */
(PID.TID 0000.0001)                 2.979171143158405E+05,      /* J = 14 */
(PID.TID 0000.0001)                 3.001626787528886E+05,      /* J = 15 */
(PID.TID 0000.0001)     2 @  3.012844832048790E+05,             /* J = 16: 17 */
(PID.TID 0000.0001)                 3.001626787528886E+05,      /* J = 18 */
(PID.TID 0000.0001)                 2.979171143158405E+05,      /* J = 19 */
(PID.TID 0000.0001)                 2.945429307892709E+05,      /* J = 20 */
(PID.TID 0000.0001)                 2.900303768613599E+05,      /* J = 21 */
(PID.TID 0000.0001)                 2.843615645344775E+05,      /* J = 22 */
(PID.TID 0000.0001)                 2.775055554645015E+05,      /* J = 23 */
(PID.TID 0000.0001)                 2.694110134598581E+05,      /* J = 24 */
(PID.TID 0000.0001)                 2.599949918261881E+05,      /* J = 25 */
(PID.TID 0000.0001)                 2.491250781852558E+05,      /* J = 26 */
(PID.TID 0000.0001)                 2.365892017348392E+05,      /* J = 27 */
(PID.TID 0000.0001)                 2.220405216043041E+05,      /* J = 28 */
(PID.TID 0000.0001)                 2.048868197919576E+05,      /* J = 29 */
(PID.TID 0000.0001)                 1.840412227747703E+05,      /* J = 30 */
(PID.TID 0000.0001)                 1.572908084538706E+05,      /* J = 31 */
(PID.TID 0000.0001)                 1.202082051331828E+05       /* J = 32 */
(PID.TID 0000.0001)     ;
(PID.TID 0000.0001) dyF =  /* dyF(:,1,:,1) ( units: m ) */
(PID.TID 0000.0001)                 1.202082051331828E+05,      /* I =  1 */
(PID.TID 0000.0001)                 1.572908084538706E+05,      /* I =  2 */
(PID.TID 0000.0001)                 1.840412227747703E+05,      /* I =  3 */
(PID.TID 0000.0001)      . . .
(PID.TID 0000.0001)                 2.979171143158405E+05,      /* I = 46 */
(PID.TID 0000.0001)                 3.001626787528886E+05,      /* I = 47 */
(PID.TID 0000.0001)                 3.012844832048790E+05,      /* I = 48 */
(PID.TID 0000.0001)                 3.012844832048790E+05,      /* I = 49 */
(PID.TID 0000.0001)                 3.001626787528886E+05,      /* I = 50 */
(PID.TID 0000.0001)                 2.979171143158405E+05,      /* I = 51 */
(PID.TID 0000.0001)      . . .
(PID.TID 0000.0001)                 1.840412227747703E+05,      /* I = 94 */
(PID.TID 0000.0001)                 1.572908084538706E+05,      /* I = 95 */
(PID.TID 0000.0001)                 1.202082051331828E+05,      /* I = 96 */
(PID.TID 0000.0001)                 1.202082051331828E+05,      /* I = 97 */
(PID.TID 0000.0001)                 1.572908084538706E+05,      /* I = 98 */
(PID.TID 0000.0001)                 1.840412227747703E+05,      /* I = 99 */
(PID.TID 0000.0001)      . . .
(PID.TID 0000.0001)                 2.979171143158405E+05,      /* I =142 */
(PID.TID 0000.0001)                 3.001626787528886E+05,      /* I =143 */
(PID.TID 0000.0001)                 3.012844832048790E+05,      /* I =144 */
(PID.TID 0000.0001)                 3.012844832048790E+05,      /* I =145 */
(PID.TID 0000.0001)                 3.001626787528886E+05,      /* I =146 */
(PID.TID 0000.0001)                 2.979171143158405E+05,      /* I =147 */
(PID.TID 0000.0001)      . . .
(PID.TID 0000.0001)                 1.840412227747703E+05,      /* I =190 */
(PID.TID 0000.0001)                 1.572908084538706E+05,      /* I =191 */
(PID.TID 0000.0001)                 1.202082051331828E+05       /* I =192 */
(PID.TID 0000.0001)     ;
(PID.TID 0000.0001) dyF =  /* dyF(1,:,1,:) ( units: m ) */
(PID.TID 0000.0001)                 1.202082051331828E+05,      /* J =  1 */
(PID.TID 0000.0001)                 1.563594089971120E+05,      /* J =  2 */
(PID.TID 0000.0001)                 1.835530058121492E+05,      /* J =  3 */
(PID.TID 0000.0001)                 2.045883481718707E+05,      /* J =  4 */
(PID.TID 0000.0001)                 2.218350349844185E+05,      /* J =  5 */
(PID.TID 0000.0001)                 2.364352994647058E+05,      /* J =  6 */
(PID.TID 0000.0001)                 2.490022710862746E+05,      /* J =  7 */
(PID.TID 0000.0001)                 2.598919724358304E+05,      /* J =  8 */
(PID.TID 0000.0001)                 2.693210245495156E+05,      /* J =  9 */
(PID.TID 0000.0001)                 2.774243179696503E+05,      /* J = 10 */
(PID.TID 0000.0001)                 2.842862532064524E+05,      /* J = 11 */
(PID.TID 0000.0001)                 2.899590699694043E+05,      /* J = 12 */
(PID.TID 0000.0001)                 2.944742915095688E+05,      /* J = 13 */
(PID.TID 0000.0001)                 2.978501920522794E+05,      /* J = 14 */
(PID.TID 0000.0001)                 3.000967749619962E+05,      /* J = 15 */
(PID.TID 0000.0001)     2 @  3.012190981969055E+05,             /* J = 16: 17 */
(PID.TID 0000.0001)                 3.000967749619962E+05,      /* J = 18 */
(PID.TID 0000.0001)                 2.978501920522794E+05,      /* J = 19 */
(PID.TID 0000.0001)                 2.944742915095688E+05,      /* J = 20 */
(PID.TID 0000.0001)                 2.899590699694043E+05,      /* J = 21 */
(PID.TID 0000.0001)                 2.842862532064524E+05,      /* J = 22 */
(PID.TID 0000.0001)                 2.774243179696503E+05,      /* J = 23 */
(PID.TID 0000.0001)                 2.693210245495156E+05,      /* J = 24 */
(PID.TID 0000.0001)                 2.598919724358304E+05,      /* J = 25 */
(PID.TID 0000.0001)                 2.490022710862746E+05,      /* J = 26 */
(PID.TID 0000.0001)                 2.364352994647058E+05,      /* J = 27 */
(PID.TID 0000.0001)                 2.218350349844185E+05,      /* J = 28 */
(PID.TID 0000.0001)                 2.045883481718707E+05,      /* J = 29 */
(PID.TID 0000.0001)                 1.835530058121492E+05,      /* J = 30 */
(PID.TID 0000.0001)                 1.563594089971120E+05,      /* J = 31 */
(PID.TID 0000.0001)                 1.202082051331828E+05       /* J = 32 */
(PID.TID 0000.0001)     ;
(PID.TID 0000.0001) dxG =  /* dxG(:,1,:,1) ( units: m ) */
(PID.TID 0000.0001)                 1.009837800879055E+05,      /* I =  1 */
(PID.TID 0000.0001)                 1.534505834330338E+05,      /* I =  2 */
(PID.TID 0000.0001)                 1.823321598773926E+05,      /* I =  3 */
(PID.TID 0000.0001)      . . .
(PID.TID 0000.0001)                 2.977867909042096E+05,      /* I = 46 */
(PID.TID 0000.0001)                 3.000380090330854E+05,      /* I = 47 */
(PID.TID 0000.0001)                 3.011625828699101E+05,      /* I = 48 */
(PID.TID 0000.0001)                 3.011625828699101E+05,      /* I = 49 */
(PID.TID 0000.0001)                 3.000380090330854E+05,      /* I = 50 */
(PID.TID 0000.0001)                 2.977867909042096E+05,      /* I = 51 */
(PID.TID 0000.0001)      . . .
(PID.TID 0000.0001)                 1.823321598773926E+05,      /* I = 94 */
(PID.TID 0000.0001)                 1.534505834330338E+05,      /* I = 95 */
(PID.TID 0000.0001)                 1.009837800879055E+05,      /* I = 96 */
(PID.TID 0000.0001)                 1.009837800879055E+05,      /* I = 97 */
(PID.TID 0000.0001)                 1.534505834330338E+05,      /* I = 98 */
(PID.TID 0000.0001)                 1.823321598773926E+05,      /* I = 99 */
(PID.TID 0000.0001)      . . .
(PID.TID 0000.0001)                 2.977867909042096E+05,      /* I =142 */
(PID.TID 0000.0001)                 3.000380090330854E+05,      /* I =143 */
(PID.TID 0000.0001)                 3.011625828699101E+05,      /* I =144 */
(PID.TID 0000.0001)                 3.011625828699101E+05,      /* I =145 */
(PID.TID 0000.0001)                 3.000380090330854E+05,      /* I =146 */
(PID.TID 0000.0001)                 2.977867909042096E+05,      /* I =147 */
(PID.TID 0000.0001)      . . .
(PID.TID 0000.0001)                 1.823321598773926E+05,      /* I =190 */
(PID.TID 0000.0001)                 1.534505834330338E+05,      /* I =191 */
(PID.TID 0000.0001)                 1.009837800879055E+05       /* I =192 */
(PID.TID 0000.0001)     ;
(PID.TID 0000.0001) dxG =  /* dxG(1,:,1,:) ( units: m ) */
(PID.TID 0000.0001)                 1.009837800879055E+05,      /* J =  1 */
(PID.TID 0000.0001)                 1.403701524205398E+05,      /* J =  2 */
(PID.TID 0000.0001)                 1.716197227386011E+05,      /* J =  3 */
(PID.TID 0000.0001)                 1.950254041626018E+05,      /* J =  4 */
(PID.TID 0000.0001)                 2.138410773065497E+05,      /* J =  5 */
(PID.TID 0000.0001)                 2.295958105911512E+05,      /* J =  6 */
(PID.TID 0000.0001)                 2.430829951739083E+05,      /* J =  7 */
(PID.TID 0000.0001)                 2.547526806712889E+05,      /* J =  8 */
(PID.TID 0000.0001)                 2.648750305193301E+05,      /* J =  9 */
(PID.TID 0000.0001)                 2.736173771018112E+05,      /* J = 10 */
(PID.TID 0000.0001)                 2.810845823202647E+05,      /* J = 11 */
(PID.TID 0000.0001)                 2.873420591008078E+05,      /* J = 12 */
(PID.TID 0000.0001)                 2.924298293668651E+05,      /* J = 13 */
(PID.TID 0000.0001)                 2.963715635865306E+05,      /* J = 14 */
(PID.TID 0000.0001)                 2.991805843171258E+05,      /* J = 15 */
(PID.TID 0000.0001)                 3.008638765647886E+05,      /* J = 16 */
(PID.TID 0000.0001)                 3.014246674484008E+05,      /* J = 17 */
(PID.TID 0000.0001)                 3.008638765647886E+05,      /* J = 18 */
(PID.TID 0000.0001)                 2.991805843171258E+05,      /* J = 19 */
(PID.TID 0000.0001)                 2.963715635865306E+05,      /* J = 20 */
(PID.TID 0000.0001)                 2.924298293668651E+05,      /* J = 21 */
(PID.TID 0000.0001)                 2.873420591008078E+05,      /* J = 22 */
(PID.TID 0000.0001)                 2.810845823202647E+05,      /* J = 23 */
(PID.TID 0000.0001)                 2.736173771018112E+05,      /* J = 24 */
(PID.TID 0000.0001)                 2.648750305193301E+05,      /* J = 25 */
(PID.TID 0000.0001)                 2.547526806712889E+05,      /* J = 26 */
(PID.TID 0000.0001)                 2.430829951739083E+05,      /* J = 27 */
(PID.TID 0000.0001)                 2.295958105911512E+05,      /* J = 28 */
(PID.TID 0000.0001)                 2.138410773065497E+05,      /* J = 29 */
(PID.TID 0000.0001)                 1.950254041626018E+05,      /* J = 30 */
(PID.TID 0000.0001)                 1.716197227386011E+05,      /* J = 31 */
(PID.TID 0000.0001)                 1.403701524205398E+05       /* J = 32 */
(PID.TID 0000.0001)     ;
(PID.TID 0000.0001) dyG =  /* dyG(:,1,:,1) ( units: m ) */
(PID.TID 0000.0001)                 1.009837800879055E+05,      /* I =  1 */
(PID.TID 0000.0001)                 1.403701524205398E+05,      /* I =  2 */
(PID.TID 0000.0001)                 1.716197227386011E+05,      /* I =  3 */
(PID.TID 0000.0001)      . . .
(PID.TID 0000.0001)                 2.963715635865306E+05,      /* I = 46 */
(PID.TID 0000.0001)                 2.991805843171258E+05,      /* I = 47 */
(PID.TID 0000.0001)                 3.008638765647886E+05,      /* I = 48 */
(PID.TID 0000.0001)                 3.014246674484008E+05,      /* I = 49 */
(PID.TID 0000.0001)                 3.008638765647886E+05,      /* I = 50 */
(PID.TID 0000.0001)                 2.991805843171258E+05,      /* I = 51 */
(PID.TID 0000.0001)      . . .
(PID.TID 0000.0001)                 1.950254041626018E+05,      /* I = 94 */
(PID.TID 0000.0001)                 1.716197227386011E+05,      /* I = 95 */
(PID.TID 0000.0001)                 1.403701524205398E+05,      /* I = 96 */
(PID.TID 0000.0001)                 1.009837800879055E+05,      /* I = 97 */
(PID.TID 0000.0001)                 1.403701524205398E+05,      /* I = 98 */
(PID.TID 0000.0001)                 1.716197227386011E+05,      /* I = 99 */
(PID.TID 0000.0001)      . . .
(PID.TID 0000.0001)                 2.963715635865306E+05,      /* I =142 */
(PID.TID 0000.0001)                 2.991805843171258E+05,      /* I =143 */
(PID.TID 0000.0001)                 3.008638765647886E+05,      /* I =144 */
(PID.TID 0000.0001)                 3.014246674484008E+05,      /* I =145 */
(PID.TID 0000.0001)                 3.008638765647886E+05,      /* I =146 */
(PID.TID 0000.0001)                 2.991805843171258E+05,      /* I =147 */
(PID.TID 0000.0001)      . . .
(PID.TID 0000.0001)                 1.950254041626018E+05,      /* I =190 */
(PID.TID 0000.0001)                 1.716197227386011E+05,      /* I =191 */
(PID.TID 0000.0001)                 1.403701524205398E+05       /* I =192 */
(PID.TID 0000.0001)     ;
(PID.TID 0000.0001) dyG =  /* dyG(1,:,1,:) ( units: m ) */
(PID.TID 0000.0001)                 1.009837800879055E+05,      /* J =  1 */
(PID.TID 0000.0001)                 1.534505834330338E+05,      /* J =  2 */
(PID.TID 0000.0001)                 1.823321598773926E+05,      /* J =  3 */
(PID.TID 0000.0001)                 2.038999045536999E+05,      /* J =  4 */
(PID.TID 0000.0001)                 2.213884732245467E+05,      /* J =  5 */
(PID.TID 0000.0001)                 2.361211699596122E+05,      /* J =  6 */
(PID.TID 0000.0001)                 2.487693460283865E+05,      /* J =  7 */
(PID.TID 0000.0001)                 2.597126963772147E+05,      /* J =  8 */
(PID.TID 0000.0001)                 2.691790288994575E+05,      /* J =  9 */
(PID.TID 0000.0001)                 2.773091043277394E+05,      /* J = 10 */
(PID.TID 0000.0001)                 2.841906470085516E+05,      /* J = 11 */
(PID.TID 0000.0001)                 2.898778860929753E+05,      /* J = 12 */
(PID.TID 0000.0001)                 2.944035815526416E+05,      /* J = 13 */
(PID.TID 0000.0001)                 2.977867909042096E+05,      /* J = 14 */
(PID.TID 0000.0001)                 3.000380090330854E+05,      /* J = 15 */
(PID.TID 0000.0001)     2 @  3.011625828699101E+05,             /* J = 16: 17 */
(PID.TID 0000.0001)                 3.000380090330854E+05,      /* J = 18 */
(PID.TID 0000.0001)                 2.977867909042096E+05,      /* J = 19 */
(PID.TID 0000.0001)                 2.944035815526416E+05,      /* J = 20 */
(PID.TID 0000.0001)                 2.898778860929753E+05,      /* J = 21 */
(PID.TID 0000.0001)                 2.841906470085516E+05,      /* J = 22 */
(PID.TID 0000.0001)                 2.773091043277394E+05,      /* J = 23 */
(PID.TID 0000.0001)                 2.691790288994575E+05,      /* J = 24 */
(PID.TID 0000.0001)                 2.597126963772147E+05,      /* J = 25 */
(PID.TID 0000.0001)                 2.487693460283865E+05,      /* J = 26 */
(PID.TID 0000.0001)                 2.361211699596122E+05,      /* J = 27 */
(PID.TID 0000.0001)                 2.213884732245467E+05,      /* J = 28 */
(PID.TID 0000.0001)                 2.038999045536999E+05,      /* J = 29 */
(PID.TID 0000.0001)                 1.823321598773926E+05,      /* J = 30 */
(PID.TID 0000.0001)                 1.534505834330338E+05,      /* J = 31 */
(PID.TID 0000.0001)                 1.009837800879055E+05       /* J = 32 */
(PID.TID 0000.0001)     ;
(PID.TID 0000.0001) dxC =  /* dxC(:,1,:,1) ( units: m ) */
(PID.TID 0000.0001)                 1.135373000692312E+05,      /* I =  1 */
(PID.TID 0000.0001)                 1.391343389937106E+05,      /* I =  2 */
(PID.TID 0000.0001)                 1.709574999026266E+05,      /* I =  3 */
(PID.TID 0000.0001)      . . .
(PID.TID 0000.0001)                 2.963038832565530E+05,      /* I = 46 */
(PID.TID 0000.0001)                 2.991142470004740E+05,      /* I = 47 */
(PID.TID 0000.0001)                 3.007982711627968E+05,      /* I = 48 */
(PID.TID 0000.0001)                 3.013593857228136E+05,      /* I = 49 */
(PID.TID 0000.0001)                 3.007982711627968E+05,      /* I = 50 */
(PID.TID 0000.0001)                 2.991142470004740E+05,      /* I = 51 */
(PID.TID 0000.0001)      . . .
(PID.TID 0000.0001)                 1.946503699269892E+05,      /* I = 94 */
(PID.TID 0000.0001)                 1.709574999026266E+05,      /* I = 95 */
(PID.TID 0000.0001)                 1.391343389937106E+05,      /* I = 96 */
(PID.TID 0000.0001)                 1.135373000692312E+05,      /* I = 97 */
(PID.TID 0000.0001)                 1.391343389937106E+05,      /* I = 98 */
(PID.TID 0000.0001)                 1.709574999026266E+05,      /* I = 99 */
(PID.TID 0000.0001)      . . .
(PID.TID 0000.0001)                 2.963038832565530E+05,      /* I =142 */
(PID.TID 0000.0001)                 2.991142470004740E+05,      /* I =143 */
(PID.TID 0000.0001)                 3.007982711627968E+05,      /* I =144 */
(PID.TID 0000.0001)                 3.013593857228136E+05,      /* I =145 */
(PID.TID 0000.0001)                 3.007982711627968E+05,      /* I =146 */
(PID.TID 0000.0001)                 2.991142470004740E+05,      /* I =147 */
(PID.TID 0000.0001)      . . .
(PID.TID 0000.0001)                 1.946503699269892E+05,      /* I =190 */
(PID.TID 0000.0001)                 1.709574999026266E+05,      /* I =191 */
(PID.TID 0000.0001)                 1.391343389937106E+05       /* I =192 */
(PID.TID 0000.0001)     ;
(PID.TID 0000.0001) dxC =  /* dxC(1,:,1,:) ( units: m ) */
(PID.TID 0000.0001)                 1.135373000692312E+05,      /* J =  1 */
(PID.TID 0000.0001)                 1.549545757850771E+05,      /* J =  2 */
(PID.TID 0000.0001)                 1.829777599966776E+05,      /* J =  3 */
(PID.TID 0000.0001)                 2.042717761866506E+05,      /* J =  4 */
(PID.TID 0000.0001)                 2.216367828252819E+05,      /* J =  5 */
(PID.TID 0000.0001)                 2.363029564123586E+05,      /* J =  6 */
(PID.TID 0000.0001)                 2.489113743322025E+05,      /* J =  7 */
(PID.TID 0000.0001)                 2.598293319150326E+05,      /* J =  8 */
(PID.TID 0000.0001)                 2.692787333338535E+05,      /* J =  9 */
(PID.TID 0000.0001)                 2.773972106720365E+05,      /* J = 10 */
(PID.TID 0000.0001)                 2.842706922224557E+05,      /* J = 11 */
(PID.TID 0000.0001)                 2.899523122489403E+05,      /* J = 12 */
(PID.TID 0000.0001)                 2.944741346384699E+05,      /* J = 13 */
(PID.TID 0000.0001)                 2.978547649292580E+05,      /* J = 14 */
(PID.TID 0000.0001)                 3.001044073506459E+05,      /* J = 15 */
(PID.TID 0000.0001)     2 @  3.012281885409289E+05,             /* J = 16: 17 */
(PID.TID 0000.0001)                 3.001044073506459E+05,      /* J = 18 */
(PID.TID 0000.0001)                 2.978547649292580E+05,      /* J = 19 */
(PID.TID 0000.0001)                 2.944741346384699E+05,      /* J = 20 */
(PID.TID 0000.0001)                 2.899523122489403E+05,      /* J = 21 */
(PID.TID 0000.0001)                 2.842706922224557E+05,      /* J = 22 */
(PID.TID 0000.0001)                 2.773972106720365E+05,      /* J = 23 */
(PID.TID 0000.0001)                 2.692787333338535E+05,      /* J = 24 */
(PID.TID 0000.0001)                 2.598293319150326E+05,      /* J = 25 */
(PID.TID 0000.0001)                 2.489113743322025E+05,      /* J = 26 */
(PID.TID 0000.0001)                 2.363029564123586E+05,      /* J = 27 */
(PID.TID 0000.0001)                 2.216367828252819E+05,      /* J = 28 */
(PID.TID 0000.0001)                 2.042717761866506E+05,      /* J = 29 */
(PID.TID 0000.0001)                 1.829777599966776E+05,      /* J = 30 */
(PID.TID 0000.0001)                 1.549545757850771E+05,      /* J = 31 */
(PID.TID 0000.0001)                 1.135373000692312E+05       /* J = 32 */
(PID.TID 0000.0001)     ;
(PID.TID 0000.0001) dyC =  /* dyC(:,1,:,1) ( units: m ) */
(PID.TID 0000.0001)                 1.135373000692312E+05,      /* I =  1 */
(PID.TID 0000.0001)                 1.549545757850771E+05,      /* I =  2 */
(PID.TID 0000.0001)                 1.829777599966776E+05,      /* I =  3 */
(PID.TID 0000.0001)      . . .
(PID.TID 0000.0001)                 2.978547649292580E+05,      /* I = 46 */
(PID.TID 0000.0001)                 3.001044073506459E+05,      /* I = 47 */
(PID.TID 0000.0001)                 3.012281885409289E+05,      /* I = 48 */
(PID.TID 0000.0001)                 3.012281885409289E+05,      /* I = 49 */
(PID.TID 0000.0001)                 3.001044073506459E+05,      /* I = 50 */
(PID.TID 0000.0001)                 2.978547649292580E+05,      /* I = 51 */
(PID.TID 0000.0001)      . . .
(PID.TID 0000.0001)                 1.829777599966776E+05,      /* I = 94 */
(PID.TID 0000.0001)                 1.549545757850771E+05,      /* I = 95 */
(PID.TID 0000.0001)                 1.135373000692312E+05,      /* I = 96 */
(PID.TID 0000.0001)                 1.135373000692312E+05,      /* I = 97 */
(PID.TID 0000.0001)                 1.549545757850771E+05,      /* I = 98 */
(PID.TID 0000.0001)                 1.829777599966776E+05,      /* I = 99 */
(PID.TID 0000.0001)      . . .
(PID.TID 0000.0001)                 2.978547649292580E+05,      /* I =142 */
(PID.TID 0000.0001)                 3.001044073506459E+05,      /* I =143 */
(PID.TID 0000.0001)                 3.012281885409289E+05,      /* I =144 */
(PID.TID 0000.0001)                 3.012281885409289E+05,      /* I =145 */
(PID.TID 0000.0001)                 3.001044073506459E+05,      /* I =146 */
(PID.TID 0000.0001)                 2.978547649292580E+05,      /* I =147 */
(PID.TID 0000.0001)      . . .
(PID.TID 0000.0001)                 1.829777599966776E+05,      /* I =190 */
(PID.TID 0000.0001)                 1.549545757850771E+05,      /* I =191 */
(PID.TID 0000.0001)                 1.135373000692312E+05       /* I =192 */
(PID.TID 0000.0001)     ;
(PID.TID 0000.0001) dyC =  /* dyC(1,:,1,:) ( units: m ) */
(PID.TID 0000.0001)                 1.135373000692312E+05,      /* J =  1 */
(PID.TID 0000.0001)                 1.391343389937106E+05,      /* J =  2 */
(PID.TID 0000.0001)                 1.709574999026266E+05,      /* J =  3 */
(PID.TID 0000.0001)                 1.946503699269892E+05,      /* J =  4 */
(PID.TID 0000.0001)                 2.135964483342134E+05,      /* J =  5 */
(PID.TID 0000.0001)                 2.294195678257306E+05,      /* J =  6 */
(PID.TID 0000.0001)                 2.429464709770498E+05,      /* J =  7 */
(PID.TID 0000.0001)                 2.546408290696998E+05,      /* J =  8 */
(PID.TID 0000.0001)                 2.647791839299727E+05,      /* J =  9 */
(PID.TID 0000.0001)                 2.735321911346108E+05,      /* J = 10 */
(PID.TID 0000.0001)                 2.810065951609633E+05,      /* J = 11 */
(PID.TID 0000.0001)                 2.872689479506990E+05,      /* J = 12 */
(PID.TID 0000.0001)                 2.923599955312932E+05,      /* J = 13 */
(PID.TID 0000.0001)                 2.963038832565530E+05,      /* J = 14 */
(PID.TID 0000.0001)                 2.991142470004740E+05,      /* J = 15 */
(PID.TID 0000.0001)                 3.007982711627968E+05,      /* J = 16 */
(PID.TID 0000.0001)                 3.013593857228136E+05,      /* J = 17 */
(PID.TID 0000.0001)                 3.007982711627968E+05,      /* J = 18 */
(PID.TID 0000.0001)                 2.991142470004740E+05,      /* J = 19 */
(PID.TID 0000.0001)                 2.963038832565530E+05,      /* J = 20 */
(PID.TID 0000.0001)                 2.923599955312932E+05,      /* J = 21 */
(PID.TID 0000.0001)                 2.872689479506990E+05,      /* J = 22 */
(PID.TID 0000.0001)                 2.810065951609633E+05,      /* J = 23 */
(PID.TID 0000.0001)                 2.735321911346108E+05,      /* J = 24 */
(PID.TID 0000.0001)                 2.647791839299727E+05,      /* J = 25 */
(PID.TID 0000.0001)                 2.546408290696998E+05,      /* J = 26 */
(PID.TID 0000.0001)                 2.429464709770498E+05,      /* J = 27 */
(PID.TID 0000.0001)                 2.294195678257306E+05,      /* J = 28 */
(PID.TID 0000.0001)                 2.135964483342134E+05,      /* J = 29 */
(PID.TID 0000.0001)                 1.946503699269892E+05,      /* J = 30 */
(PID.TID 0000.0001)                 1.709574999026266E+05,      /* J = 31 */
(PID.TID 0000.0001)                 1.391343389937106E+05       /* J = 32 */
(PID.TID 0000.0001)     ;
(PID.TID 0000.0001) dxV =  /* dxV(:,1,:,1) ( units: m ) */
(PID.TID 0000.0001)                 8.015229982413632E+04,      /* I =  1 */
(PID.TID 0000.0001)                 1.333130744933864E+05,      /* I =  2 */
(PID.TID 0000.0001)                 1.691744868129062E+05,      /* I =  3 */
(PID.TID 0000.0001)      . . .
(PID.TID 0000.0001)                 2.962371870847826E+05,      /* I = 46 */
(PID.TID 0000.0001)                 2.990534755671296E+05,      /* I = 47 */
(PID.TID 0000.0001)                 3.007409169495504E+05,      /* I = 48 */
(PID.TID 0000.0001)                 3.013031486919771E+05,      /* I = 49 */
(PID.TID 0000.0001)                 3.007409169495504E+05,      /* I = 50 */
(PID.TID 0000.0001)                 2.990534755671296E+05,      /* I = 51 */
(PID.TID 0000.0001)      . . .
(PID.TID 0000.0001)                 1.937548202849060E+05,      /* I = 94 */
(PID.TID 0000.0001)                 1.691744868129062E+05,      /* I = 95 */
(PID.TID 0000.0001)                 1.333130744933864E+05,      /* I = 96 */
(PID.TID 0000.0001)                 8.015229982413632E+04,      /* I = 97 */
(PID.TID 0000.0001)                 1.333130744933864E+05,      /* I = 98 */
(PID.TID 0000.0001)                 1.691744868129062E+05,      /* I = 99 */
(PID.TID 0000.0001)      . . .
(PID.TID 0000.0001)                 2.962371870847826E+05,      /* I =142 */
(PID.TID 0000.0001)                 2.990534755671296E+05,      /* I =143 */
(PID.TID 0000.0001)                 3.007409169495504E+05,      /* I =144 */
(PID.TID 0000.0001)                 3.013031486919771E+05,      /* I =145 */
(PID.TID 0000.0001)                 3.007409169495504E+05,      /* I =146 */
(PID.TID 0000.0001)                 2.990534755671296E+05,      /* I =147 */
(PID.TID 0000.0001)      . . .
(PID.TID 0000.0001)                 1.937548202849060E+05,      /* I =190 */
(PID.TID 0000.0001)                 1.691744868129062E+05,      /* I =191 */
(PID.TID 0000.0001)                 1.333130744933864E+05       /* I =192 */
(PID.TID 0000.0001)     ;
(PID.TID 0000.0001) dxV =  /* dxV(1,:,1,:) ( units: m ) */
(PID.TID 0000.0001)                 8.015229982413632E+04,      /* J =  1 */
(PID.TID 0000.0001)                 1.362652340208229E+05,      /* J =  2 */
(PID.TID 0000.0001)                 1.701080315742101E+05,      /* J =  3 */
(PID.TID 0000.0001)                 1.942331448101592E+05,      /* J =  4 */
(PID.TID 0000.0001)                 2.133486626971531E+05,      /* J =  5 */
(PID.TID 0000.0001)                 2.292584591272880E+05,      /* J =  6 */
(PID.TID 0000.0001)                 2.428369969078989E+05,      /* J =  7 */
(PID.TID 0000.0001)                 2.545652950875683E+05,      /* J =  8 */
(PID.TID 0000.0001)                 2.647274964828301E+05,      /* J =  9 */
(PID.TID 0000.0001)                 2.734980225206389E+05,      /* J = 10 */
(PID.TID 0000.0001)                 2.809856491525217E+05,      /* J = 11 */
(PID.TID 0000.0001)                 2.872580915202295E+05,      /* J = 12 */
(PID.TID 0000.0001)                 2.923567890694162E+05,      /* J = 13 */
(PID.TID 0000.0001)                 2.963063101754721E+05,      /* J = 14 */
(PID.TID 0000.0001)                 2.991205495886625E+05,      /* J = 15 */
(PID.TID 0000.0001)                 3.008068453676764E+05,      /* J = 16 */
(PID.TID 0000.0001)                 3.013686170436881E+05,      /* J = 17 */
(PID.TID 0000.0001)                 3.008068453676764E+05,      /* J = 18 */
(PID.TID 0000.0001)                 2.991205495886625E+05,      /* J = 19 */
(PID.TID 0000.0001)                 2.963063101754721E+05,      /* J = 20 */
(PID.TID 0000.0001)                 2.923567890694162E+05,      /* J = 21 */
(PID.TID 0000.0001)                 2.872580915202295E+05,      /* J = 22 */
(PID.TID 0000.0001)                 2.809856491525217E+05,      /* J = 23 */
(PID.TID 0000.0001)                 2.734980225206389E+05,      /* J = 24 */
(PID.TID 0000.0001)                 2.647274964828301E+05,      /* J = 25 */
(PID.TID 0000.0001)                 2.545652950875683E+05,      /* J = 26 */
(PID.TID 0000.0001)                 2.428369969078989E+05,      /* J = 27 */
(PID.TID 0000.0001)                 2.292584591272880E+05,      /* J = 28 */
(PID.TID 0000.0001)                 2.133486626971531E+05,      /* J = 29 */
(PID.TID 0000.0001)                 1.942331448101592E+05,      /* J = 30 */
(PID.TID 0000.0001)                 1.701080315742101E+05,      /* J = 31 */
(PID.TID 0000.0001)                 1.362652340208229E+05       /* J = 32 */
(PID.TID 0000.0001)     ;
(PID.TID 0000.0001) dyU =  /* dyU(:,1,:,1) ( units: m ) */
(PID.TID 0000.0001)                 8.015229982413632E+04,      /* I =  1 */
(PID.TID 0000.0001)                 1.362652340208229E+05,      /* I =  2 */
(PID.TID 0000.0001)                 1.701080315742101E+05,      /* I =  3 */
(PID.TID 0000.0001)      . . .
(PID.TID 0000.0001)                 2.963063101754721E+05,      /* I = 46 */
(PID.TID 0000.0001)                 2.991205495886625E+05,      /* I = 47 */
(PID.TID 0000.0001)                 3.008068453676764E+05,      /* I = 48 */
(PID.TID 0000.0001)                 3.013686170436881E+05,      /* I = 49 */
(PID.TID 0000.0001)                 3.008068453676764E+05,      /* I = 50 */
(PID.TID 0000.0001)                 2.991205495886625E+05,      /* I = 51 */
(PID.TID 0000.0001)      . . .
(PID.TID 0000.0001)                 1.942331448101592E+05,      /* I = 94 */
(PID.TID 0000.0001)                 1.701080315742101E+05,      /* I = 95 */
(PID.TID 0000.0001)                 1.362652340208229E+05,      /* I = 96 */
(PID.TID 0000.0001)                 8.015229982413632E+04,      /* I = 97 */
(PID.TID 0000.0001)                 1.362652340208229E+05,      /* I = 98 */
(PID.TID 0000.0001)                 1.701080315742101E+05,      /* I = 99 */
(PID.TID 0000.0001)      . . .
(PID.TID 0000.0001)                 2.963063101754721E+05,      /* I =142 */
(PID.TID 0000.0001)                 2.991205495886625E+05,      /* I =143 */
(PID.TID 0000.0001)                 3.008068453676764E+05,      /* I =144 */
(PID.TID 0000.0001)                 3.013686170436881E+05,      /* I =145 */
(PID.TID 0000.0001)                 3.008068453676764E+05,      /* I =146 */
(PID.TID 0000.0001)                 2.991205495886625E+05,      /* I =147 */
(PID.TID 0000.0001)      . . .
(PID.TID 0000.0001)                 1.942331448101592E+05,      /* I =190 */
(PID.TID 0000.0001)                 1.701080315742101E+05,      /* I =191 */
(PID.TID 0000.0001)                 1.362652340208229E+05       /* I =192 */
(PID.TID 0000.0001)     ;
(PID.TID 0000.0001) dyU =  /* dyU(1,:,1,:) ( units: m ) */
(PID.TID 0000.0001)                 8.015229982413632E+04,      /* J =  1 */
(PID.TID 0000.0001)                 1.333130744933864E+05,      /* J =  2 */
(PID.TID 0000.0001)                 1.691744868129062E+05,      /* J =  3 */
(PID.TID 0000.0001)                 1.937548202849060E+05,      /* J =  4 */
(PID.TID 0000.0001)                 2.130490056267208E+05,      /* J =  5 */
(PID.TID 0000.0001)                 2.290479919481738E+05,      /* J =  6 */
(PID.TID 0000.0001)                 2.426774358027003E+05,      /* J =  7 */
(PID.TID 0000.0001)                 2.544372984215561E+05,      /* J =  8 */
(PID.TID 0000.0001)                 2.646201463834826E+05,      /* J =  9 */
(PID.TID 0000.0001)                 2.734046499619031E+05,      /* J = 10 */
(PID.TID 0000.0001)                 2.809019351693761E+05,      /* J = 11 */
(PID.TID 0000.0001)                 2.871811105274442E+05,      /* J = 12 */
(PID.TID 0000.0001)                 2.922844849381675E+05,      /* J = 13 */
(PID.TID 0000.0001)                 2.962371870847826E+05,      /* J = 14 */
(PID.TID 0000.0001)                 2.990534755671296E+05,      /* J = 15 */
(PID.TID 0000.0001)                 3.007409169495504E+05,      /* J = 16 */
(PID.TID 0000.0001)                 3.013031486919771E+05,      /* J = 17 */
(PID.TID 0000.0001)                 3.007409169495504E+05,      /* J = 18 */
(PID.TID 0000.0001)                 2.990534755671296E+05,      /* J = 19 */
(PID.TID 0000.0001)                 2.962371870847826E+05,      /* J = 20 */
(PID.TID 0000.0001)                 2.922844849381675E+05,      /* J = 21 */
(PID.TID 0000.0001)                 2.871811105274442E+05,      /* J = 22 */
(PID.TID 0000.0001)                 2.809019351693761E+05,      /* J = 23 */
(PID.TID 0000.0001)                 2.734046499619031E+05,      /* J = 24 */
(PID.TID 0000.0001)                 2.646201463834826E+05,      /* J = 25 */
(PID.TID 0000.0001)                 2.544372984215561E+05,      /* J = 26 */
(PID.TID 0000.0001)                 2.426774358027003E+05,      /* J = 27 */
(PID.TID 0000.0001)                 2.290479919481738E+05,      /* J = 28 */
(PID.TID 0000.0001)                 2.130490056267208E+05,      /* J = 29 */
(PID.TID 0000.0001)                 1.937548202849060E+05,      /* J = 30 */
(PID.TID 0000.0001)                 1.691744868129062E+05,      /* J = 31 */
(PID.TID 0000.0001)                 1.333130744933864E+05       /* J = 32 */
(PID.TID 0000.0001)     ;
(PID.TID 0000.0001) rA  =  /* rA (:,1,:,1) ( units: m^2 ) */
(PID.TID 0000.0001)                 1.549786705672200E+10,      /* I =  1 */
(PID.TID 0000.0001)                 2.487202533723944E+10,      /* I =  2 */
(PID.TID 0000.0001)                 3.392265412140352E+10,      /* I =  3 */
(PID.TID 0000.0001)      . . .
(PID.TID 0000.0001)                 8.871245486529788E+10,      /* I = 46 */
(PID.TID 0000.0001)                 9.005359372079962E+10,      /* I = 47 */
(PID.TID 0000.0001)                 9.072735712796770E+10,      /* I = 48 */
(PID.TID 0000.0001)                 9.072735712796770E+10,      /* I = 49 */
(PID.TID 0000.0001)                 9.005359372079962E+10,      /* I = 50 */
(PID.TID 0000.0001)                 8.871245486529788E+10,      /* I = 51 */
(PID.TID 0000.0001)      . . .
(PID.TID 0000.0001)                 3.392265412140352E+10,      /* I = 94 */
(PID.TID 0000.0001)                 2.487202533723944E+10,      /* I = 95 */
(PID.TID 0000.0001)                 1.549786705672200E+10,      /* I = 96 */
(PID.TID 0000.0001)                 1.549786705672200E+10,      /* I = 97 */
(PID.TID 0000.0001)                 2.487202533723944E+10,      /* I = 98 */
(PID.TID 0000.0001)                 3.392265412140352E+10,      /* I = 99 */
(PID.TID 0000.0001)      . . .
(PID.TID 0000.0001)                 8.871245486529788E+10,      /* I =142 */
(PID.TID 0000.0001)                 9.005359372079962E+10,      /* I =143 */
(PID.TID 0000.0001)                 9.072735712796770E+10,      /* I =144 */
(PID.TID 0000.0001)                 9.072735712796770E+10,      /* I =145 */
(PID.TID 0000.0001)                 9.005359372079962E+10,      /* I =146 */
(PID.TID 0000.0001)                 8.871245486529788E+10,      /* I =147 */
(PID.TID 0000.0001)      . . .
(PID.TID 0000.0001)                 3.392265412140352E+10,      /* I =190 */
(PID.TID 0000.0001)                 2.487202533723944E+10,      /* I =191 */
(PID.TID 0000.0001)                 1.549786705672200E+10       /* I =192 */
(PID.TID 0000.0001)     ;
(PID.TID 0000.0001) rA  =  /* rA (1,:,1,:) ( units: m^2 ) */
(PID.TID 0000.0001)                 1.549786705672200E+10,      /* J =  1 */
(PID.TID 0000.0001)                 2.487202533723944E+10,      /* J =  2 */
(PID.TID 0000.0001)                 3.392265412140352E+10,      /* J =  3 */
(PID.TID 0000.0001)                 4.200427377313133E+10,      /* J =  4 */
(PID.TID 0000.0001)                 4.931323764668228E+10,      /* J =  5 */
(PID.TID 0000.0001)                 5.597545074899419E+10,      /* J =  6 */
(PID.TID 0000.0001)                 6.205603937791459E+10,      /* J =  7 */
(PID.TID 0000.0001)                 6.758299971934573E+10,      /* J =  8 */
(PID.TID 0000.0001)                 7.256155653843707E+10,      /* J =  9 */
(PID.TID 0000.0001)                 7.698291833687604E+10,      /* J = 10 */
(PID.TID 0000.0001)                 8.083005486272011E+10,      /* J = 11 */
(PID.TID 0000.0001)                 8.408183191745641E+10,      /* J = 12 */
(PID.TID 0000.0001)                 8.671615787312848E+10,      /* J = 13 */
(PID.TID 0000.0001)                 8.871245486529788E+10,      /* J = 14 */
(PID.TID 0000.0001)                 9.005359372079964E+10,      /* J = 15 */
(PID.TID 0000.0001)     2 @  9.072735712796770E+10,             /* J = 16: 17 */
(PID.TID 0000.0001)                 9.005359372079964E+10,      /* J = 18 */
(PID.TID 0000.0001)                 8.871245486529788E+10,      /* J = 19 */
(PID.TID 0000.0001)                 8.671615787312848E+10,      /* J = 20 */
(PID.TID 0000.0001)                 8.408183191745641E+10,      /* J = 21 */
(PID.TID 0000.0001)                 8.083005486272011E+10,      /* J = 22 */
(PID.TID 0000.0001)                 7.698291833687604E+10,      /* J = 23 */
(PID.TID 0000.0001)                 7.256155653843707E+10,      /* J = 24 */
(PID.TID 0000.0001)                 6.758299971934573E+10,      /* J = 25 */
(PID.TID 0000.0001)                 6.205603937791459E+10,      /* J = 26 */
(PID.TID 0000.0001)                 5.597545074899419E+10,      /* J = 27 */
(PID.TID 0000.0001)                 4.931323764668228E+10,      /* J = 28 */
(PID.TID 0000.0001)                 4.200427377313133E+10,      /* J = 29 */
(PID.TID 0000.0001)                 3.392265412140352E+10,      /* J = 30 */
(PID.TID 0000.0001)                 2.487202533723944E+10,      /* J = 31 */
(PID.TID 0000.0001)                 1.549786705672200E+10       /* J = 32 */
(PID.TID 0000.0001)     ;
(PID.TID 0000.0001) rAw =  /* rAw(:,1,:,1) ( units: m^2 ) */
(PID.TID 0000.0001)                 1.146542574196578E+10,      /* I =  1 */
(PID.TID 0000.0001)                 1.953030837147821E+10,      /* I =  2 */
(PID.TID 0000.0001)                 2.933967873337320E+10,      /* I =  3 */
(PID.TID 0000.0001)      . . .
(PID.TID 0000.0001)                 8.781604517750543E+10,      /* I = 46 */
(PID.TID 0000.0001)                 8.948917519517891E+10,      /* I = 47 */
(PID.TID 0000.0001)                 9.049933392602551E+10,      /* I = 48 */
(PID.TID 0000.0001)                 9.083715262395341E+10,      /* I = 49 */
(PID.TID 0000.0001)                 9.049933392602551E+10,      /* I = 50 */
(PID.TID 0000.0001)                 8.948917519517891E+10,      /* I = 51 */
(PID.TID 0000.0001)      . . .
(PID.TID 0000.0001)                 3.796176706541101E+10,      /* I = 94 */
(PID.TID 0000.0001)                 2.933967873337320E+10,      /* I = 95 */
(PID.TID 0000.0001)                 1.953030837147821E+10,      /* I = 96 */
(PID.TID 0000.0001)                 1.146542574196578E+10,      /* I = 97 */
(PID.TID 0000.0001)                 1.953030837147821E+10,      /* I = 98 */
(PID.TID 0000.0001)                 2.933967873337320E+10,      /* I = 99 */
(PID.TID 0000.0001)      . . .
(PID.TID 0000.0001)                 8.781604517750543E+10,      /* I =142 */
(PID.TID 0000.0001)                 8.948917519517891E+10,      /* I =143 */
(PID.TID 0000.0001)                 9.049933392602551E+10,      /* I =144 */
(PID.TID 0000.0001)                 9.083715262395341E+10,      /* I =145 */
(PID.TID 0000.0001)                 9.049933392602551E+10,      /* I =146 */
(PID.TID 0000.0001)                 8.948917519517891E+10,      /* I =147 */
(PID.TID 0000.0001)      . . .
(PID.TID 0000.0001)                 3.796176706541101E+10,      /* I =190 */
(PID.TID 0000.0001)                 2.933967873337320E+10,      /* I =191 */
(PID.TID 0000.0001)                 1.953030837147821E+10       /* I =192 */
(PID.TID 0000.0001)     ;
(PID.TID 0000.0001) rAw =  /* rAw(1,:,1,:) ( units: m^2 ) */
(PID.TID 0000.0001)                 1.146542574196578E+10,      /* J =  1 */
(PID.TID 0000.0001)                 2.377787005983833E+10,      /* J =  2 */
(PID.TID 0000.0001)                 3.336273018972140E+10,      /* J =  3 */
(PID.TID 0000.0001)                 4.165099566747280E+10,      /* J =  4 */
(PID.TID 0000.0001)                 4.906782896008959E+10,      /* J =  5 */
(PID.TID 0000.0001)                 5.579613053300137E+10,      /* J =  6 */
(PID.TID 0000.0001)                 6.192151981164894E+10,      /* J =  7 */
(PID.TID 0000.0001)                 6.748097638954340E+10,      /* J =  8 */
(PID.TID 0000.0001)                 7.248418794208269E+10,      /* J =  9 */
(PID.TID 0000.0001)                 7.692477203447566E+10,      /* J = 10 */
(PID.TID 0000.0001)                 8.078707194826852E+10,      /* J = 11 */
(PID.TID 0000.0001)                 8.405076334249313E+10,      /* J = 12 */
(PID.TID 0000.0001)                 8.669423991218034E+10,      /* J = 13 */
(PID.TID 0000.0001)                 8.869721460381146E+10,      /* J = 14 */
(PID.TID 0000.0001)                 9.004272888354184E+10,      /* J = 15 */
(PID.TID 0000.0001)     2 @  9.071865929421040E+10,             /* J = 16: 17 */
(PID.TID 0000.0001)                 9.004272888354184E+10,      /* J = 18 */
(PID.TID 0000.0001)                 8.869721460381146E+10,      /* J = 19 */
(PID.TID 0000.0001)                 8.669423991218034E+10,      /* J = 20 */
(PID.TID 0000.0001)                 8.405076334249313E+10,      /* J = 21 */
(PID.TID 0000.0001)                 8.078707194826852E+10,      /* J = 22 */
(PID.TID 0000.0001)                 7.692477203447566E+10,      /* J = 23 */
(PID.TID 0000.0001)                 7.248418794208269E+10,      /* J = 24 */
(PID.TID 0000.0001)                 6.748097638954340E+10,      /* J = 25 */
(PID.TID 0000.0001)                 6.192151981164894E+10,      /* J = 26 */
(PID.TID 0000.0001)                 5.579613053300137E+10,      /* J = 27 */
(PID.TID 0000.0001)                 4.906782896008959E+10,      /* J = 28 */
(PID.TID 0000.0001)                 4.165099566747280E+10,      /* J = 29 */
(PID.TID 0000.0001)                 3.336273018972140E+10,      /* J = 30 */
(PID.TID 0000.0001)                 2.377787005983833E+10,      /* J = 31 */
(PID.TID 0000.0001)                 1.146542574196578E+10       /* J = 32 */
(PID.TID 0000.0001)     ;
(PID.TID 0000.0001) rAs =  /* rAs(:,1,:,1) ( units: m^2 ) */
(PID.TID 0000.0001)                 1.146542574196578E+10,      /* I =  1 */
(PID.TID 0000.0001)                 2.377787005983833E+10,      /* I =  2 */
(PID.TID 0000.0001)                 3.336273018972140E+10,      /* I =  3 */
(PID.TID 0000.0001)      . . .
(PID.TID 0000.0001)                 8.869721460381146E+10,      /* I = 46 */
(PID.TID 0000.0001)                 9.004272888354184E+10,      /* I = 47 */
(PID.TID 0000.0001)                 9.071865929421040E+10,      /* I = 48 */
(PID.TID 0000.0001)                 9.071865929421040E+10,      /* I = 49 */
(PID.TID 0000.0001)                 9.004272888354184E+10,      /* I = 50 */
(PID.TID 0000.0001)                 8.869721460381146E+10,      /* I = 51 */
(PID.TID 0000.0001)      . . .
(PID.TID 0000.0001)                 3.336273018972140E+10,      /* I = 94 */
(PID.TID 0000.0001)                 2.377787005983833E+10,      /* I = 95 */
(PID.TID 0000.0001)                 1.146542574196578E+10,      /* I = 96 */
(PID.TID 0000.0001)                 1.146542574196578E+10,      /* I = 97 */
(PID.TID 0000.0001)                 2.377787005983833E+10,      /* I = 98 */
(PID.TID 0000.0001)                 3.336273018972140E+10,      /* I = 99 */
(PID.TID 0000.0001)      . . .
(PID.TID 0000.0001)                 8.869721460381146E+10,      /* I =142 */
(PID.TID 0000.0001)                 9.004272888354184E+10,      /* I =143 */
(PID.TID 0000.0001)                 9.071865929421040E+10,      /* I =144 */
(PID.TID 0000.0001)                 9.071865929421040E+10,      /* I =145 */
(PID.TID 0000.0001)                 9.004272888354184E+10,      /* I =146 */
(PID.TID 0000.0001)                 8.869721460381146E+10,      /* I =147 */
(PID.TID 0000.0001)      . . .
(PID.TID 0000.0001)                 3.336273018972140E+10,      /* I =190 */
(PID.TID 0000.0001)                 2.377787005983833E+10,      /* I =191 */
(PID.TID 0000.0001)                 1.146542574196578E+10       /* I =192 */
(PID.TID 0000.0001)     ;
(PID.TID 0000.0001) rAs =  /* rAs(1,:,1,:) ( units: m^2 ) */
(PID.TID 0000.0001)                 1.146542574196578E+10,      /* J =  1 */
(PID.TID 0000.0001)                 1.953030837147821E+10,      /* J =  2 */
(PID.TID 0000.0001)                 2.933967873337320E+10,      /* J =  3 */
(PID.TID 0000.0001)                 3.796176706541101E+10,      /* J =  4 */
(PID.TID 0000.0001)                 4.567569462064098E+10,      /* J =  5 */
(PID.TID 0000.0001)                 5.267377164042021E+10,      /* J =  6 */
(PID.TID 0000.0001)                 5.905615583203223E+10,      /* J =  7 */
(PID.TID 0000.0001)                 6.487043381386549E+10,      /* J =  8 */
(PID.TID 0000.0001)                 7.013339442433482E+10,      /* J =  9 */
(PID.TID 0000.0001)                 7.484316069116351E+10,      /* J = 10 */
(PID.TID 0000.0001)                 7.898662143005907E+10,      /* J = 11 */
(PID.TID 0000.0001)                 8.254445101987663E+10,      /* J = 12 */
(PID.TID 0000.0001)                 8.549478360691351E+10,      /* J = 13 */
(PID.TID 0000.0001)                 8.781604517750543E+10,      /* J = 14 */
(PID.TID 0000.0001)                 8.948917519517891E+10,      /* J = 15 */
(PID.TID 0000.0001)                 9.049933392602551E+10,      /* J = 16 */
(PID.TID 0000.0001)                 9.083715262395341E+10,      /* J = 17 */
(PID.TID 0000.0001)                 9.049933392602551E+10,      /* J = 18 */
(PID.TID 0000.0001)                 8.948917519517891E+10,      /* J = 19 */
(PID.TID 0000.0001)                 8.781604517750543E+10,      /* J = 20 */
(PID.TID 0000.0001)                 8.549478360691351E+10,      /* J = 21 */
(PID.TID 0000.0001)                 8.254445101987663E+10,      /* J = 22 */
(PID.TID 0000.0001)                 7.898662143005907E+10,      /* J = 23 */
(PID.TID 0000.0001)                 7.484316069116351E+10,      /* J = 24 */
(PID.TID 0000.0001)                 7.013339442433482E+10,      /* J = 25 */
(PID.TID 0000.0001)                 6.487043381386549E+10,      /* J = 26 */
(PID.TID 0000.0001)                 5.905615583203223E+10,      /* J = 27 */
(PID.TID 0000.0001)                 5.267377164042021E+10,      /* J = 28 */
(PID.TID 0000.0001)                 4.567569462064098E+10,      /* J = 29 */
(PID.TID 0000.0001)                 3.796176706541101E+10,      /* J = 30 */
(PID.TID 0000.0001)                 2.933967873337320E+10,      /* J = 31 */
(PID.TID 0000.0001)                 1.953030837147821E+10       /* J = 32 */
(PID.TID 0000.0001)     ;
(PID.TID 0000.0001) globalArea = /* Integrated horizontal Area (m^2) */
(PID.TID 0000.0001)                 5.098642104278459E+14
(PID.TID 0000.0001)     ;
(PID.TID 0000.0001) hasWetCSCorners = /* Domain contains CS corners (True/False) */
(PID.TID 0000.0001)                   T
(PID.TID 0000.0001)     ;
(PID.TID 0000.0001) // =======================================================
(PID.TID 0000.0001) // End of Model config. summary
(PID.TID 0000.0001) // =======================================================
(PID.TID 0000.0001) 
(PID.TID 0000.0001) == Packages configuration : Check & print summary ==
(PID.TID 0000.0001) 
(PID.TID 0000.0001) GAD_CHECK: #define ALLOW_GENERIC_ADVDIFF
(PID.TID 0000.0001) // =======================================================
(PID.TID 0000.0001) // Check Model config. (CONFIG_CHECK):
(PID.TID 0000.0001) // CONFIG_CHECK : Normal End
(PID.TID 0000.0001) // =======================================================
(PID.TID 0000.0001) 
(PID.TID 0000.0001)  MDS_READ_FIELD: opening global file: uVel_cs2-32x40.d19930110z06.bin
(PID.TID 0000.0001)  MDS_READ_FIELD: opening global file: vVel_cs2-32x40.d19930110z06.bin
(PID.TID 0000.0001)  MDS_READ_FIELD: opening global file: TH_cs2-32x40.d19930110z06.bin
(PID.TID 0000.0001)  MDS_READ_FIELD: opening global file: SHwet_cs32x40.d19930110z06.bin
(PID.TID 0000.0001) Start initial hydrostatic pressure computation
(PID.TID 0000.0001) Pressure is predetermined for buoyancyRelation ATMOSPHERIC
(PID.TID 0000.0001) 
(PID.TID 0000.0001)  write diagnostics summary to file ioUnit:      6
Iter.Nb:         0 ; Time(s):  0.0000000000000E+00
------------------------------------------------------------------------
2D/3D diagnostics: Number of lists:     1
------------------------------------------------------------------------
listId=    1 ; file name: surface
 nFlds, nActive,       freq     &     phase        , nLev               
    2  |    2  |         0.003000         0.000000 |   1
 levels:   1
 diag# | name   |   ipt  |  iMate | kLev|   count |   mate.C|           
   307 |TCANOPY |      1 |      0 |   1 |       0 |
    93 |RSURF   |      2 |      0 |   1 |       0 |
------------------------------------------------------------------------
Global & Regional Statistics diagnostics: Number of lists:     0
------------------------------------------------------------------------
  In fizhi_init_vars: Beginning of New Experiment 
  Cold Start: Zero out Turb second moments 
  Initialize fizhi arrays that will be on pickup 
  Cold Start: Zero out Turb second moments 
  Initialize fizhi arrays that will be on pickup 
  Cold Start: Zero out Turb second moments 
  Initialize fizhi arrays that will be on pickup 
  Cold Start: Zero out Turb second moments 
  Initialize fizhi arrays that will be on pickup 
  Cold Start: Zero out Turb second moments 
  Initialize fizhi arrays that will be on pickup 
  Cold Start: Zero out Turb second moments 
  Initialize fizhi arrays that will be on pickup 
(PID.TID 0000.0001) // =======================================================
(PID.TID 0000.0001) // Model current state
(PID.TID 0000.0001) // =======================================================
(PID.TID 0000.0001) 
(PID.TID 0000.0001) // =======================================================
(PID.TID 0000.0001) // Begin MONITOR dynamic field statistics
(PID.TID 0000.0001) // =======================================================
(PID.TID 0000.0001) %MON time_tsnumber                =                     0
(PID.TID 0000.0001) %MON time_secondsf                =   0.0000000000000E+00
(PID.TID 0000.0001) %MON dynstat_eta_max              =   0.0000000000000E+00
(PID.TID 0000.0001) %MON dynstat_eta_min              =   0.0000000000000E+00
(PID.TID 0000.0001) %MON dynstat_eta_mean             =   0.0000000000000E+00
(PID.TID 0000.0001) %MON dynstat_eta_sd               =   0.0000000000000E+00
(PID.TID 0000.0001) %MON dynstat_eta_del2             =   0.0000000000000E+00
(PID.TID 0000.0001) %MON dynstat_uvel_max             =   7.4168994000232E+01
(PID.TID 0000.0001) %MON dynstat_uvel_min             =  -7.7356968118777E+01
(PID.TID 0000.0001) %MON dynstat_uvel_mean            =   1.6871585294870E+00
(PID.TID 0000.0001) %MON dynstat_uvel_sd              =   1.2684157275871E+01
(PID.TID 0000.0001) %MON dynstat_uvel_del2            =   9.0688020538684E-03
(PID.TID 0000.0001) %MON dynstat_vvel_max             =   7.1977839625278E+01
(PID.TID 0000.0001) %MON dynstat_vvel_min             =  -7.7601480847754E+01
(PID.TID 0000.0001) %MON dynstat_vvel_mean            =   1.7739371675361E+00
(PID.TID 0000.0001) %MON dynstat_vvel_sd              =   1.2655290271598E+01
(PID.TID 0000.0001) %MON dynstat_vvel_del2            =   8.8191868717540E-03
(PID.TID 0000.0001) %MON dynstat_wvel_max             =   2.5525889149630E+00
(PID.TID 0000.0001) %MON dynstat_wvel_min             =  -1.9085110337237E+00
(PID.TID 0000.0001) %MON dynstat_wvel_mean            =   6.8076495107233E-05
(PID.TID 0000.0001) %MON dynstat_wvel_sd              =   1.0465263611179E-01
(PID.TID 0000.0001) %MON dynstat_wvel_del2            =   5.9086512353709E-04
(PID.TID 0000.0001) %MON dynstat_theta_max            =   4.7718572189768E+02
(PID.TID 0000.0001) %MON dynstat_theta_min            =   2.2575824549606E+02
(PID.TID 0000.0001) %MON dynstat_theta_mean           =   3.2537765262516E+02
(PID.TID 0000.0001) %MON dynstat_theta_sd             =   3.8390363289601E+01
(PID.TID 0000.0001) %MON dynstat_theta_del2           =   4.0085476658443E-03
(PID.TID 0000.0001) %MON dynstat_salt_max             =   2.2753236510844E-02
(PID.TID 0000.0001) %MON dynstat_salt_min             =   3.4631707808040E-07
(PID.TID 0000.0001) %MON dynstat_salt_mean            =   2.5960117905564E-03
(PID.TID 0000.0001) %MON dynstat_salt_sd              =   4.0987939365104E-03
(PID.TID 0000.0001) %MON dynstat_salt_del2            =   1.9205964321016E-06
(PID.TID 0000.0001) %MON advcfl_uvel_max              =   5.9161983461376E-02
(PID.TID 0000.0001) %MON advcfl_vvel_max              =   7.3216094601912E-02
(PID.TID 0000.0001) %MON advcfl_wvel_max              =   1.2252426791822E-01
(PID.TID 0000.0001) %MON advcfl_W_hf_max              =   1.2252426791822E-01
(PID.TID 0000.0001) %MON am_eta_mean                  =   0.0000000000000E+00
(PID.TID 0000.0001) %MON am_uZo_mean                  =   3.5958627412778E+11
(PID.TID 0000.0001) %MON am_tot_mean                  =   3.5958627412778E+11
(PID.TID 0000.0001) %MON pe_b_mean                    =   0.0000000000000E+00
(PID.TID 0000.0001) %MON ke_max                       =   4.4942041989326E+03
(PID.TID 0000.0001) %MON ke_mean                      =   1.6253016001146E+02
(PID.TID 0000.0001) %MON ke_vol                       =   4.9652881814643E+19
(PID.TID 0000.0001) %MON vort_r_min                   =  -3.3939208069564E-04
(PID.TID 0000.0001) %MON vort_r_max                   =   2.6010305458184E-04
(PID.TID 0000.0001) %MON vort_a_mean                  =  -1.8043394429286E-07
(PID.TID 0000.0001) %MON vort_a_sd                    =   8.8983624794130E-05
(PID.TID 0000.0001) %MON vort_p_mean                  =  -1.8280146282770E-07
(PID.TID 0000.0001) %MON vort_p_sd                    =   9.1733913064779E-05
(PID.TID 0000.0001) %MON surfExpan_theta_mean         =  -7.2652650887639E-17
(PID.TID 0000.0001) %MON surfExpan_salt_mean          =  -3.9055399364609E-21
(PID.TID 0000.0001) %MON surfExpan_Heat_mean          =  -6.8975385884585E-15
(PID.TID 0000.0001) %MON En_Budget_T2PE_mean          =  -2.4801947186243E-01
(PID.TID 0000.0001) // =======================================================
(PID.TID 0000.0001) // End MONITOR dynamic field statistics
(PID.TID 0000.0001) // =======================================================

 Climatological Dataset is being used.
 Current model year is used to fill Header Dates
  Updated boundary condition data
  ---------------------------------
  Variable: SST     
  Description: Sea surf temp (K) NASA TM 104606 Vol. 1 lat0/lon0 center of first grid box      
  Resolution: x=          192  y=           32  Undefined value =    999999986991104.00     
  Starting latitude =   -90.000000000000000       longitude =  -180.00000000000000     
  Data valid at these times: 
    1:19921228         0    2:19930104         0    3:19930111         0
    4:19930118         0    5:19930125         0    6:19930201         0
    7:19930208         0    8:19930215         0    9:19930222         0
   10:19930301         0   11:19930308         0   12:19930315         0
   13:19930322         0   14:19930329         0   15:19930405         0
   16:19930412         0   17:19930419         0   18:19930426         0
   19:19930503         0   20:19930510         0   21:19930517         0
   22:19930524         0   23:19930531         0   24:19930607         0
   25:19930614         0   26:19930621         0   27:19930628         0
   28:19930705         0   29:19930712         0   30:19930719         0
   31:19930726         0   32:19930802         0   33:19930809         0
   34:19930816         0   35:19930823         0   36:19930830         0
   37:19930906         0   38:19930913         0   39:19930920         0
   40:19930927         0   41:19931004         0   42:19931011         0
   43:19931018         0   44:19931025         0   45:19931101         0
   46:19931108         0   47:19931115         0   48:19931122         0
   49:19931129         0   50:19931206         0   51:19931213         0
   52:19931220         0   53:19931227         0   54:19940103         0


 Climatological Dataset is being used.
 Current model year to be used to fill Header Dates
  Updated boundary condition data
  ---------------------------------
  Variable: SICE    
  Description: NCEP Sea ice mask 0=no sea ice 1=sea ice lat0/lon0 center of first grid box     
  Resolution: x=          192  y=           32  Undefined value =    999999986991104.00     
  Starting latitude =   -90.000000000000000       longitude =  -180.00000000000000     
  Data valid at these times: 
    1:19921228         0    2:19930104         0    3:19930111         0
    4:19930118         0    5:19930125         0    6:19930201         0
    7:19930208         0    8:19930215         0    9:19930222         0
   10:19930301         0   11:19930308         0   12:19930315         0
   13:19930322         0   14:19930329         0   15:19930405         0
   16:19930412         0   17:19930419         0   18:19930426         0
   19:19930503         0   20:19930510         0   21:19930517         0
   22:19930524         0   23:19930531         0   24:19930607         0
   25:19930614         0   26:19930621         0   27:19930628         0
   28:19930705         0   29:19930712         0   30:19930719         0
   31:19930726         0   32:19930802         0   33:19930809         0
   34:19930816         0   35:19930823         0   36:19930830         0
   37:19930906         0   38:19930913         0   39:19930920         0
   40:19930927         0   41:19931004         0   42:19931011         0
   43:19931018         0   44:19931025         0   45:19931101         0
   46:19931108         0   47:19931115         0   48:19931122         0
   49:19931129         0   50:19931206         0   51:19931213         0
   52:19931220         0   53:19931227         0   54:19940103         0


 Climatological Dataset is being used.
 Current model year is used to fill Header Dates
  Updated boundary condition data
  ---------------------------------
  Variable: SST     
  Description: Sea surf temp (K) NASA TM 104606 Vol. 1 lat0/lon0 center of first grid box      
  Resolution: x=          192  y=           32  Undefined value =    999999986991104.00     
  Starting latitude =   -90.000000000000000       longitude =  -180.00000000000000     
  Data valid at these times: 
    1:19921228         0    2:19930104         0    3:19930111         0
    4:19930118         0    5:19930125         0    6:19930201         0
    7:19930208         0    8:19930215         0    9:19930222         0
   10:19930301         0   11:19930308         0   12:19930315         0
   13:19930322         0   14:19930329         0   15:19930405         0
   16:19930412         0   17:19930419         0   18:19930426         0
   19:19930503         0   20:19930510         0   21:19930517         0
   22:19930524         0   23:19930531         0   24:19930607         0
   25:19930614         0   26:19930621         0   27:19930628         0
   28:19930705         0   29:19930712         0   30:19930719         0
   31:19930726         0   32:19930802         0   33:19930809         0
   34:19930816         0   35:19930823         0   36:19930830         0
   37:19930906         0   38:19930913         0   39:19930920         0
   40:19930927         0   41:19931004         0   42:19931011         0
   43:19931018         0   44:19931025         0   45:19931101         0
   46:19931108         0   47:19931115         0   48:19931122         0
   49:19931129         0   50:19931206         0   51:19931213         0
   52:19931220         0   53:19931227         0   54:19940103         0


 Climatological Dataset is being used.
 Current model year to be used to fill Header Dates
  Updated boundary condition data
  ---------------------------------
  Variable: SICE    
  Description: NCEP Sea ice mask 0=no sea ice 1=sea ice lat0/lon0 center of first grid box     
  Resolution: x=          192  y=           32  Undefined value =    999999986991104.00     
  Starting latitude =   -90.000000000000000       longitude =  -180.00000000000000     
  Data valid at these times: 
    1:19921228         0    2:19930104         0    3:19930111         0
    4:19930118         0    5:19930125         0    6:19930201         0
    7:19930208         0    8:19930215         0    9:19930222         0
   10:19930301         0   11:19930308         0   12:19930315         0
   13:19930322         0   14:19930329         0   15:19930405         0
   16:19930412         0   17:19930419         0   18:19930426         0
   19:19930503         0   20:19930510         0   21:19930517         0
   22:19930524         0   23:19930531         0   24:19930607         0
   25:19930614         0   26:19930621         0   27:19930628         0
   28:19930705         0   29:19930712         0   30:19930719         0
   31:19930726         0   32:19930802         0   33:19930809         0
   34:19930816         0   35:19930823         0   36:19930830         0
   37:19930906         0   38:19930913         0   39:19930920         0
   40:19930927         0   41:19931004         0   42:19931011         0
   43:19931018         0   44:19931025         0   45:19931101         0
   46:19931108         0   47:19931115         0   48:19931122         0
   49:19931129         0   50:19931206         0   51:19931213         0
   52:19931220         0   53:19931227         0   54:19940103         0


 Climatological Dataset is being used.
 Current model year is used to fill Header Dates
  Updated boundary condition data
  ---------------------------------
  Variable: SST     
  Description: Sea surf temp (K) NASA TM 104606 Vol. 1 lat0/lon0 center of first grid box      
  Resolution: x=          192  y=           32  Undefined value =    999999986991104.00     
  Starting latitude =   -90.000000000000000       longitude =  -180.00000000000000     
  Data valid at these times: 
    1:19921228         0    2:19930104         0    3:19930111         0
    4:19930118         0    5:19930125         0    6:19930201         0
    7:19930208         0    8:19930215         0    9:19930222         0
   10:19930301         0   11:19930308         0   12:19930315         0
   13:19930322         0   14:19930329         0   15:19930405         0
   16:19930412         0   17:19930419         0   18:19930426         0
   19:19930503         0   20:19930510         0   21:19930517         0
   22:19930524         0   23:19930531         0   24:19930607         0
   25:19930614         0   26:19930621         0   27:19930628         0
   28:19930705         0   29:19930712         0   30:19930719         0
   31:19930726         0   32:19930802         0   33:19930809         0
   34:19930816         0   35:19930823         0   36:19930830         0
   37:19930906         0   38:19930913         0   39:19930920         0
   40:19930927         0   41:19931004         0   42:19931011         0
   43:19931018         0   44:19931025         0   45:19931101         0
   46:19931108         0   47:19931115         0   48:19931122         0
   49:19931129         0   50:19931206         0   51:19931213         0
   52:19931220         0   53:19931227         0   54:19940103         0


 Climatological Dataset is being used.
 Current model year to be used to fill Header Dates
  Updated boundary condition data
  ---------------------------------
  Variable: SICE    
  Description: NCEP Sea ice mask 0=no sea ice 1=sea ice lat0/lon0 center of first grid box     
  Resolution: x=          192  y=           32  Undefined value =    999999986991104.00     
  Starting latitude =   -90.000000000000000       longitude =  -180.00000000000000     
  Data valid at these times: 
    1:19921228         0    2:19930104         0    3:19930111         0
    4:19930118         0    5:19930125         0    6:19930201         0
    7:19930208         0    8:19930215         0    9:19930222         0
   10:19930301         0   11:19930308         0   12:19930315         0
   13:19930322         0   14:19930329         0   15:19930405         0
   16:19930412         0   17:19930419         0   18:19930426         0
   19:19930503         0   20:19930510         0   21:19930517         0
   22:19930524         0   23:19930531         0   24:19930607         0
   25:19930614         0   26:19930621         0   27:19930628         0
   28:19930705         0   29:19930712         0   30:19930719         0
   31:19930726         0   32:19930802         0   33:19930809         0
   34:19930816         0   35:19930823         0   36:19930830         0
   37:19930906         0   38:19930913         0   39:19930920         0
   40:19930927         0   41:19931004         0   42:19931011         0
   43:19931018         0   44:19931025         0   45:19931101         0
   46:19931108         0   47:19931115         0   48:19931122         0
   49:19931129         0   50:19931206         0   51:19931213         0
   52:19931220         0   53:19931227         0   54:19940103         0


 Climatological Dataset is being used.
 Current model year is used to fill Header Dates
  Updated boundary condition data
  ---------------------------------
  Variable: SST     
  Description: Sea surf temp (K) NASA TM 104606 Vol. 1 lat0/lon0 center of first grid box      
  Resolution: x=          192  y=           32  Undefined value =    999999986991104.00     
  Starting latitude =   -90.000000000000000       longitude =  -180.00000000000000     
  Data valid at these times: 
    1:19921228         0    2:19930104         0    3:19930111         0
    4:19930118         0    5:19930125         0    6:19930201         0
    7:19930208         0    8:19930215         0    9:19930222         0
   10:19930301         0   11:19930308         0   12:19930315         0
   13:19930322         0   14:19930329         0   15:19930405         0
   16:19930412         0   17:19930419         0   18:19930426         0
   19:19930503         0   20:19930510         0   21:19930517         0
   22:19930524         0   23:19930531         0   24:19930607         0
   25:19930614         0   26:19930621         0   27:19930628         0
   28:19930705         0   29:19930712         0   30:19930719         0
   31:19930726         0   32:19930802         0   33:19930809         0
   34:19930816         0   35:19930823         0   36:19930830         0
   37:19930906         0   38:19930913         0   39:19930920         0
   40:19930927         0   41:19931004         0   42:19931011         0
   43:19931018         0   44:19931025         0   45:19931101         0
   46:19931108         0   47:19931115         0   48:19931122         0
   49:19931129         0   50:19931206         0   51:19931213         0
   52:19931220         0   53:19931227         0   54:19940103         0


 Climatological Dataset is being used.
 Current model year to be used to fill Header Dates
  Updated boundary condition data
  ---------------------------------
  Variable: SICE    
  Description: NCEP Sea ice mask 0=no sea ice 1=sea ice lat0/lon0 center of first grid box     
  Resolution: x=          192  y=           32  Undefined value =    999999986991104.00     
  Starting latitude =   -90.000000000000000       longitude =  -180.00000000000000     
  Data valid at these times: 
    1:19921228         0    2:19930104         0    3:19930111         0
    4:19930118         0    5:19930125         0    6:19930201         0
    7:19930208         0    8:19930215         0    9:19930222         0
   10:19930301         0   11:19930308         0   12:19930315         0
   13:19930322         0   14:19930329         0   15:19930405         0
   16:19930412         0   17:19930419         0   18:19930426         0
   19:19930503         0   20:19930510         0   21:19930517         0
   22:19930524         0   23:19930531         0   24:19930607         0
   25:19930614         0   26:19930621         0   27:19930628         0
   28:19930705         0   29:19930712         0   30:19930719         0
   31:19930726         0   32:19930802         0   33:19930809         0
   34:19930816         0   35:19930823         0   36:19930830         0
   37:19930906         0   38:19930913         0   39:19930920         0
   40:19930927         0   41:19931004         0   42:19931011         0
   43:19931018         0   44:19931025         0   45:19931101         0
   46:19931108         0   47:19931115         0   48:19931122         0
   49:19931129         0   50:19931206         0   51:19931213         0
   52:19931220         0   53:19931227         0   54:19940103         0


 Climatological Dataset is being used.
 Current model year is used to fill Header Dates
  Updated boundary condition data
  ---------------------------------
  Variable: SST     
  Description: Sea surf temp (K) NASA TM 104606 Vol. 1 lat0/lon0 center of first grid box      
  Resolution: x=          192  y=           32  Undefined value =    999999986991104.00     
  Starting latitude =   -90.000000000000000       longitude =  -180.00000000000000     
  Data valid at these times: 
    1:19921228         0    2:19930104         0    3:19930111         0
    4:19930118         0    5:19930125         0    6:19930201         0
    7:19930208         0    8:19930215         0    9:19930222         0
   10:19930301         0   11:19930308         0   12:19930315         0
   13:19930322         0   14:19930329         0   15:19930405         0
   16:19930412         0   17:19930419         0   18:19930426         0
   19:19930503         0   20:19930510         0   21:19930517         0
   22:19930524         0   23:19930531         0   24:19930607         0
   25:19930614         0   26:19930621         0   27:19930628         0
   28:19930705         0   29:19930712         0   30:19930719         0
   31:19930726         0   32:19930802         0   33:19930809         0
   34:19930816         0   35:19930823         0   36:19930830         0
   37:19930906         0   38:19930913         0   39:19930920         0
   40:19930927         0   41:19931004         0   42:19931011         0
   43:19931018         0   44:19931025         0   45:19931101         0
   46:19931108         0   47:19931115         0   48:19931122         0
   49:19931129         0   50:19931206         0   51:19931213         0
   52:19931220         0   53:19931227         0   54:19940103         0


 Climatological Dataset is being used.
 Current model year to be used to fill Header Dates
  Updated boundary condition data
  ---------------------------------
  Variable: SICE    
  Description: NCEP Sea ice mask 0=no sea ice 1=sea ice lat0/lon0 center of first grid box     
  Resolution: x=          192  y=           32  Undefined value =    999999986991104.00     
  Starting latitude =   -90.000000000000000       longitude =  -180.00000000000000     
  Data valid at these times: 
    1:19921228         0    2:19930104         0    3:19930111         0
    4:19930118         0    5:19930125         0    6:19930201         0
    7:19930208         0    8:19930215         0    9:19930222         0
   10:19930301         0   11:19930308         0   12:19930315         0
   13:19930322         0   14:19930329         0   15:19930405         0
   16:19930412         0   17:19930419         0   18:19930426         0
   19:19930503         0   20:19930510         0   21:19930517         0
   22:19930524         0   23:19930531         0   24:19930607         0
   25:19930614         0   26:19930621         0   27:19930628         0
   28:19930705         0   29:19930712         0   30:19930719         0
   31:19930726         0   32:19930802         0   33:19930809         0
   34:19930816         0   35:19930823         0   36:19930830         0
   37:19930906         0   38:19930913         0   39:19930920         0
   40:19930927         0   41:19931004         0   42:19931011         0
   43:19931018         0   44:19931025         0   45:19931101         0
   46:19931108         0   47:19931115         0   48:19931122         0
   49:19931129         0   50:19931206         0   51:19931213         0
   52:19931220         0   53:19931227         0   54:19940103         0


 Climatological Dataset is being used.
 Current model year is used to fill Header Dates
  Updated boundary condition data
  ---------------------------------
  Variable: SST     
  Description: Sea surf temp (K) NASA TM 104606 Vol. 1 lat0/lon0 center of first grid box      
  Resolution: x=          192  y=           32  Undefined value =    999999986991104.00     
  Starting latitude =   -90.000000000000000       longitude =  -180.00000000000000     
  Data valid at these times: 
    1:19921228         0    2:19930104         0    3:19930111         0
    4:19930118         0    5:19930125         0    6:19930201         0
    7:19930208         0    8:19930215         0    9:19930222         0
   10:19930301         0   11:19930308         0   12:19930315         0
   13:19930322         0   14:19930329         0   15:19930405         0
   16:19930412         0   17:19930419         0   18:19930426         0
   19:19930503         0   20:19930510         0   21:19930517         0
   22:19930524         0   23:19930531         0   24:19930607         0
   25:19930614         0   26:19930621         0   27:19930628         0
   28:19930705         0   29:19930712         0   30:19930719         0
   31:19930726         0   32:19930802         0   33:19930809         0
   34:19930816         0   35:19930823         0   36:19930830         0
   37:19930906         0   38:19930913         0   39:19930920         0
   40:19930927         0   41:19931004         0   42:19931011         0
   43:19931018         0   44:19931025         0   45:19931101         0
   46:19931108         0   47:19931115         0   48:19931122         0
   49:19931129         0   50:19931206         0   51:19931213         0
   52:19931220         0   53:19931227         0   54:19940103         0


 Climatological Dataset is being used.
 Current model year to be used to fill Header Dates
  Updated boundary condition data
  ---------------------------------
  Variable: SICE    
  Description: NCEP Sea ice mask 0=no sea ice 1=sea ice lat0/lon0 center of first grid box     
  Resolution: x=          192  y=           32  Undefined value =    999999986991104.00     
  Starting latitude =   -90.000000000000000       longitude =  -180.00000000000000     
  Data valid at these times: 
    1:19921228         0    2:19930104         0    3:19930111         0
    4:19930118         0    5:19930125         0    6:19930201         0
    7:19930208         0    8:19930215         0    9:19930222         0
   10:19930301         0   11:19930308         0   12:19930315         0
   13:19930322         0   14:19930329         0   15:19930405         0
   16:19930412         0   17:19930419         0   18:19930426         0
   19:19930503         0   20:19930510         0   21:19930517         0
   22:19930524         0   23:19930531         0   24:19930607         0
   25:19930614         0   26:19930621         0   27:19930628         0
   28:19930705         0   29:19930712         0   30:19930719         0
   31:19930726         0   32:19930802         0   33:19930809         0
   34:19930816         0   35:19930823         0   36:19930830         0
   37:19930906         0   38:19930913         0   39:19930920         0
   40:19930927         0   41:19931004         0   42:19931011         0
   43:19931018         0   44:19931025         0   45:19931101         0
   46:19931108         0   47:19931115         0   48:19931122         0
   49:19931129         0   50:19931206         0   51:19931213         0
   52:19931220         0   53:19931227         0   54:19940103         0


 Low-Level Clouds are Grouped between levels:           45  and           31
 Mid-Level Clouds are Grouped between levels:           30  and           19


 Top Level Allowed for Convection :            3
           Highest Sub-Cloud Level:           37
           Lowest  Sub-Cloud Level:           41
     Total Number of Random Clouds:           21

 Creating Rand Numb Array in RNDCLOUD, iseed=           0
 IRAS:            1   IRAS0:            0  indx:            0
 Current Date     19930110  Current Time        60200
(PID.TID 0000.0001) SOLVE_FOR_PRESSURE: putPmEinXvector =    F
 cg2d: Sum(rhs),rhsMax =   1.01863406598568E-10  1.15672088272754E+04
(PID.TID 0000.0001)      cg2d_init_res =   1.23466983724954E+05
(PID.TID 0000.0001)      cg2d_iters(min,last) =      -1       7
(PID.TID 0000.0001)      cg2d_last_res =   6.25231469618740E-11
(PID.TID 0000.0001) // =======================================================
(PID.TID 0000.0001) // Begin MONITOR dynamic field statistics
(PID.TID 0000.0001) // =======================================================
(PID.TID 0000.0001) %MON time_tsnumber                =                     1
(PID.TID 0000.0001) %MON time_secondsf                =   1.2000000000000E+02
(PID.TID 0000.0001) %MON dynstat_eta_max              =   7.3790480445286E+02
(PID.TID 0000.0001) %MON dynstat_eta_min              =  -7.2201466952610E+02
(PID.TID 0000.0001) %MON dynstat_eta_mean             =  -4.2678029865521E-16
(PID.TID 0000.0001) %MON dynstat_eta_sd               =   2.8793494781123E+01
(PID.TID 0000.0001) %MON dynstat_eta_del2             =   1.6942971108947E+00
(PID.TID 0000.0001) %MON dynstat_uvel_max             =   7.4083015817510E+01
(PID.TID 0000.0001) %MON dynstat_uvel_min             =  -7.7280742696781E+01
(PID.TID 0000.0001) %MON dynstat_uvel_mean            =   1.6825205442739E+00
(PID.TID 0000.0001) %MON dynstat_uvel_sd              =   1.2684421671825E+01
(PID.TID 0000.0001) %MON dynstat_uvel_del2            =   9.0206848114418E-03
(PID.TID 0000.0001) %MON dynstat_vvel_max             =   7.1927653880460E+01
(PID.TID 0000.0001) %MON dynstat_vvel_min             =  -7.7391396492229E+01
(PID.TID 0000.0001) %MON dynstat_vvel_mean            =   1.7786326190506E+00
(PID.TID 0000.0001) %MON dynstat_vvel_sd              =   1.2652010362120E+01
(PID.TID 0000.0001) %MON dynstat_vvel_del2            =   8.7749449641037E-03
(PID.TID 0000.0001) %MON dynstat_wvel_max             =   2.5189005987019E+00
(PID.TID 0000.0001) %MON dynstat_wvel_min             =  -1.8621092504827E+00
(PID.TID 0000.0001) %MON dynstat_wvel_mean            =   2.5985910723221E-04
(PID.TID 0000.0001) %MON dynstat_wvel_sd              =   1.0425653863148E-01
(PID.TID 0000.0001) %MON dynstat_wvel_del2            =   5.8467216214687E-04
(PID.TID 0000.0001) %MON dynstat_theta_max            =   4.7733426970169E+02
(PID.TID 0000.0001) %MON dynstat_theta_min            =   2.2582998391518E+02
(PID.TID 0000.0001) %MON dynstat_theta_mean           =   3.2542013074532E+02
(PID.TID 0000.0001) %MON dynstat_theta_sd             =   3.8424892786251E+01
(PID.TID 0000.0001) %MON dynstat_theta_del2           =   4.0154179418104E-03
(PID.TID 0000.0001) %MON dynstat_salt_max             =   2.2583318912863E-02
(PID.TID 0000.0001) %MON dynstat_salt_min             =   1.4861448222602E-08
(PID.TID 0000.0001) %MON dynstat_salt_mean            =   2.5883973182797E-03
(PID.TID 0000.0001) %MON dynstat_salt_sd              =   4.0786126792326E-03
(PID.TID 0000.0001) %MON dynstat_salt_del2            =   1.9212945256438E-06
(PID.TID 0000.0001) %MON advcfl_uvel_max              =   5.8948943578234E-02
(PID.TID 0000.0001) %MON advcfl_vvel_max              =   7.3628796209326E-02
(PID.TID 0000.0001) %MON advcfl_wvel_max              =   1.2090722873769E-01
(PID.TID 0000.0001) %MON advcfl_W_hf_max              =   1.2090722873769E-01
(PID.TID 0000.0001) %MON am_eta_mean                  =   0.0000000000000E+00
(PID.TID 0000.0001) %MON am_uZo_mean                  =   3.5956813898731E+11
(PID.TID 0000.0001) %MON am_tot_mean                  =   3.5956813898731E+11
(PID.TID 0000.0001) %MON pe_b_mean                    =   3.6821740880976E-03
(PID.TID 0000.0001) %MON ke_max                       =   4.4888341275195E+03
(PID.TID 0000.0001) %MON ke_mean                      =   1.6249276373393E+02
(PID.TID 0000.0001) %MON ke_vol                       =   4.9652881814643E+19
(PID.TID 0000.0001) %MON vort_r_min                   =  -3.3281640498115E-04
(PID.TID 0000.0001) %MON vort_r_max                   =   2.5462079811754E-04
(PID.TID 0000.0001) %MON vort_a_mean                  =  -1.8043394429287E-07
(PID.TID 0000.0001) %MON vort_a_sd                    =   8.8978926316891E-05
(PID.TID 0000.0001) %MON vort_p_mean                  =  -1.8280146282771E-07
(PID.TID 0000.0001) %MON vort_p_sd                    =   9.1728732856371E-05
(PID.TID 0000.0001) %MON surfExpan_theta_mean         =  -1.3872283009411E-02
(PID.TID 0000.0001) %MON surfExpan_salt_mean          =  -2.9695726357672E-06
(PID.TID 0000.0001) %MON surfExpan_Heat_mean          =   3.0508736831579E+00
(PID.TID 0000.0001) %MON En_Budget_T2PE_mean          =  -2.2938379804140E+00
(PID.TID 0000.0001) // =======================================================
(PID.TID 0000.0001) // End MONITOR dynamic field statistics
(PID.TID 0000.0001) // =======================================================
 Current Date     19930110  Current Time        60400
 cg2d: Sum(rhs),rhsMax =   1.96450855582952E-10  2.27505406692714E+04
(PID.TID 0000.0001)      cg2d_init_res =   1.19513292017070E+05
(PID.TID 0000.0001)      cg2d_iters(min,last) =      -1       7
(PID.TID 0000.0001)      cg2d_last_res =   5.56822992344503E-11
(PID.TID 0000.0001) // =======================================================
(PID.TID 0000.0001) // Begin MONITOR dynamic field statistics
(PID.TID 0000.0001) // =======================================================
(PID.TID 0000.0001) %MON time_tsnumber                =                     2
(PID.TID 0000.0001) %MON time_secondsf                =   2.4000000000000E+02
(PID.TID 0000.0001) %MON dynstat_eta_max              =   1.1610477975089E+03
(PID.TID 0000.0001) %MON dynstat_eta_min              =  -1.0382910165256E+03
(PID.TID 0000.0001) %MON dynstat_eta_mean             =   6.0251336280736E-16
(PID.TID 0000.0001) %MON dynstat_eta_sd               =   5.4498107755039E+01
(PID.TID 0000.0001) %MON dynstat_eta_del2             =   2.7803982525246E+00
(PID.TID 0000.0001) %MON dynstat_uvel_max             =   7.3987152023258E+01
(PID.TID 0000.0001) %MON dynstat_uvel_min             =  -7.7206224353374E+01
(PID.TID 0000.0001) %MON dynstat_uvel_mean            =   1.6778458911688E+00
(PID.TID 0000.0001) %MON dynstat_uvel_sd              =   1.2684608151428E+01
(PID.TID 0000.0001) %MON dynstat_uvel_del2            =   8.9799281497814E-03
(PID.TID 0000.0001) %MON dynstat_vvel_max             =   7.1867761960172E+01
(PID.TID 0000.0001) %MON dynstat_vvel_min             =  -7.7180917434515E+01
(PID.TID 0000.0001) %MON dynstat_vvel_mean            =   1.7832865118843E+00
(PID.TID 0000.0001) %MON dynstat_vvel_sd              =   1.2649070740328E+01
(PID.TID 0000.0001) %MON dynstat_vvel_del2            =   8.7450312514546E-03
(PID.TID 0000.0001) %MON dynstat_wvel_max             =   2.3486389771610E+00
(PID.TID 0000.0001) %MON dynstat_wvel_min             =  -1.6947110614552E+00
(PID.TID 0000.0001) %MON dynstat_wvel_mean            =   4.3240220125469E-04
(PID.TID 0000.0001) %MON dynstat_wvel_sd              =   1.0369559473357E-01
(PID.TID 0000.0001) %MON dynstat_wvel_del2            =   5.6211602894944E-04
(PID.TID 0000.0001) %MON dynstat_theta_max            =   4.7748185076931E+02
(PID.TID 0000.0001) %MON dynstat_theta_min            =   2.2590287033914E+02
(PID.TID 0000.0001) %MON dynstat_theta_mean           =   3.2546264427401E+02
(PID.TID 0000.0001) %MON dynstat_theta_sd             =   3.8459988825823E+01
(PID.TID 0000.0001) %MON dynstat_theta_del2           =   4.0438463389690E-03
(PID.TID 0000.0001) %MON dynstat_salt_max             =   2.2413183519736E-02
(PID.TID 0000.0001) %MON dynstat_salt_min             =   0.0000000000000E+00
(PID.TID 0000.0001) %MON dynstat_salt_mean            =   2.5807867065066E-03
(PID.TID 0000.0001) %MON dynstat_salt_sd              =   4.0598928187357E-03
(PID.TID 0000.0001) %MON dynstat_salt_del2            =   1.9721191451257E-06
(PID.TID 0000.0001) %MON advcfl_uvel_max              =   5.8653505736594E-02
(PID.TID 0000.0001) %MON advcfl_vvel_max              =   7.4454103662844E-02
(PID.TID 0000.0001) %MON advcfl_wvel_max              =   1.1273467090373E-01
(PID.TID 0000.0001) %MON advcfl_W_hf_max              =   1.1187696132173E-01
(PID.TID 0000.0001) %MON am_eta_mean                  =   4.7741193425421E+07
(PID.TID 0000.0001) %MON am_uZo_mean                  =   3.5951801713996E+11
(PID.TID 0000.0001) %MON am_tot_mean                  =   3.5956575833338E+11
(PID.TID 0000.0001) %MON pe_b_mean                    =   1.3244334525153E-02
(PID.TID 0000.0001) %MON ke_max                       =   4.4833379712024E+03
(PID.TID 0000.0001) %MON ke_mean                      =   1.6245858272598E+02
(PID.TID 0000.0001) %MON ke_vol                       =   4.9652881814645E+19
(PID.TID 0000.0001) %MON vort_r_min                   =  -3.2592429673101E-04
(PID.TID 0000.0001) %MON vort_r_max                   =   2.4922050463923E-04
(PID.TID 0000.0001) %MON vort_a_mean                  =  -1.8043394429278E-07
(PID.TID 0000.0001) %MON vort_a_sd                    =   8.8974306917343E-05
(PID.TID 0000.0001) %MON vort_p_mean                  =  -1.8280146097313E-07
(PID.TID 0000.0001) %MON vort_p_sd                    =   9.1724241969173E-05
(PID.TID 0000.0001) %MON surfExpan_theta_mean         =  -4.1321915247641E-02
(PID.TID 0000.0001) %MON surfExpan_salt_mean          =  -6.6892528855156E-06
(PID.TID 0000.0001) %MON surfExpan_Heat_mean          =   3.4434346923918E+00
(PID.TID 0000.0001) %MON En_Budget_T2PE_mean          =  -4.0738310044567E+00
(PID.TID 0000.0001) // =======================================================
(PID.TID 0000.0001) // End MONITOR dynamic field statistics
(PID.TID 0000.0001) // =======================================================
 Current Date     19930110  Current Time        60600
 cg2d: Sum(rhs),rhsMax =   5.52972778677940E-10  3.56667047139665E+04
(PID.TID 0000.0001)      cg2d_init_res =   1.19835146779930E+05
(PID.TID 0000.0001)      cg2d_iters(min,last) =      -1       7
(PID.TID 0000.0001)      cg2d_last_res =   5.19104829892685E-11
(PID.TID 0000.0001) // =======================================================
(PID.TID 0000.0001) // Begin MONITOR dynamic field statistics
(PID.TID 0000.0001) // =======================================================
(PID.TID 0000.0001) %MON time_tsnumber                =                     3
(PID.TID 0000.0001) %MON time_secondsf                =   3.6000000000000E+02
(PID.TID 0000.0001) %MON dynstat_eta_max              =   1.2552987592137E+03
(PID.TID 0000.0001) %MON dynstat_eta_min              =  -9.8037365005628E+02
(PID.TID 0000.0001) %MON dynstat_eta_mean             =   3.3138234954405E-15
(PID.TID 0000.0001) %MON dynstat_eta_sd               =   7.7973473170907E+01
(PID.TID 0000.0001) %MON dynstat_eta_del2             =   3.4085788274850E+00
(PID.TID 0000.0001) %MON dynstat_uvel_max             =   7.3861391311847E+01
(PID.TID 0000.0001) %MON dynstat_uvel_min             =  -7.7135000290810E+01
(PID.TID 0000.0001) %MON dynstat_uvel_mean            =   1.6732142502197E+00
(PID.TID 0000.0001) %MON dynstat_uvel_sd              =   1.2685446815932E+01
(PID.TID 0000.0001) %MON dynstat_uvel_del2            =   8.9606454789690E-03
(PID.TID 0000.0001) %MON dynstat_vvel_max             =   7.1852937123897E+01
(PID.TID 0000.0001) %MON dynstat_vvel_min             =  -7.6972416103327E+01
(PID.TID 0000.0001) %MON dynstat_vvel_mean            =   1.7878009534982E+00
(PID.TID 0000.0001) %MON dynstat_vvel_sd              =   1.2647055366185E+01
(PID.TID 0000.0001) %MON dynstat_vvel_del2            =   8.7359519729231E-03
(PID.TID 0000.0001) %MON dynstat_wvel_max             =   2.0859498451171E+00
(PID.TID 0000.0001) %MON dynstat_wvel_min             =  -1.4847114005919E+00
(PID.TID 0000.0001) %MON dynstat_wvel_mean            =   5.8251426981459E-04
(PID.TID 0000.0001) %MON dynstat_wvel_sd              =   1.0313090482726E-01
(PID.TID 0000.0001) %MON dynstat_wvel_del2            =   5.3252195737757E-04
(PID.TID 0000.0001) %MON dynstat_theta_max            =   4.7762888547511E+02
(PID.TID 0000.0001) %MON dynstat_theta_min            =   2.2597416401862E+02
(PID.TID 0000.0001) %MON dynstat_theta_mean           =   3.2550518849993E+02
(PID.TID 0000.0001) %MON dynstat_theta_sd             =   3.8495630547353E+01
(PID.TID 0000.0001) %MON dynstat_theta_del2           =   4.0601490427091E-03
(PID.TID 0000.0001) %MON dynstat_salt_max             =   2.2326673902811E-02
(PID.TID 0000.0001) %MON dynstat_salt_min             =   0.0000000000000E+00
(PID.TID 0000.0001) %MON dynstat_salt_mean            =   2.5730913524927E-03
(PID.TID 0000.0001) %MON dynstat_salt_sd              =   4.0426710959645E-03
(PID.TID 0000.0001) %MON dynstat_salt_del2            =   1.9533347750463E-06
(PID.TID 0000.0001) %MON advcfl_uvel_max              =   5.8368443921901E-02
(PID.TID 0000.0001) %MON advcfl_vvel_max              =   7.5311794946673E-02
(PID.TID 0000.0001) %MON advcfl_wvel_max              =   1.0012559256562E-01
(PID.TID 0000.0001) %MON advcfl_W_hf_max              =   9.8932189955227E-02
(PID.TID 0000.0001) %MON am_eta_mean                  =   1.0829390926578E+08
(PID.TID 0000.0001) %MON am_uZo_mean                  =   3.5945569295219E+11
(PID.TID 0000.0001) %MON am_tot_mean                  =   3.5956398686145E+11
(PID.TID 0000.0001) %MON pe_b_mean                    =   2.7252636008073E-02
(PID.TID 0000.0001) %MON ke_max                       =   4.4777190006139E+03
(PID.TID 0000.0001) %MON ke_mean                      =   1.6244411832813E+02
(PID.TID 0000.0001) %MON ke_vol                       =   4.9652881814645E+19
(PID.TID 0000.0001) %MON vort_r_min                   =  -3.1896304061479E-04
(PID.TID 0000.0001) %MON vort_r_max                   =   2.4391645972935E-04
(PID.TID 0000.0001) %MON vort_a_mean                  =  -1.8043394429287E-07
(PID.TID 0000.0001) %MON vort_a_sd                    =   8.8970150400908E-05
(PID.TID 0000.0001) %MON vort_p_mean                  =  -1.8280145777188E-07
(PID.TID 0000.0001) %MON vort_p_sd                    =   9.1720409140320E-05
(PID.TID 0000.0001) %MON surfExpan_theta_mean         =  -6.6463121295893E-02
(PID.TID 0000.0001) %MON surfExpan_salt_mean          =  -1.0105905511309E-05
(PID.TID 0000.0001) %MON surfExpan_Heat_mean          =   3.7233081681002E+00
(PID.TID 0000.0001) %MON En_Budget_T2PE_mean          =  -5.5540381590759E+00
(PID.TID 0000.0001) // =======================================================
(PID.TID 0000.0001) // End MONITOR dynamic field statistics
(PID.TID 0000.0001) // =======================================================
 Current Date     19930110  Current Time        60800
 cg2d: Sum(rhs),rhsMax =   3.49245965480804E-10  4.87696016938789E+04
(PID.TID 0000.0001)      cg2d_init_res =   1.23408315241859E+05
(PID.TID 0000.0001)      cg2d_iters(min,last) =      -1       7
(PID.TID 0000.0001)      cg2d_last_res =   5.37874267930296E-11
(PID.TID 0000.0001) // =======================================================
(PID.TID 0000.0001) // Begin MONITOR dynamic field statistics
(PID.TID 0000.0001) // =======================================================
(PID.TID 0000.0001) %MON time_tsnumber                =                     4
(PID.TID 0000.0001) %MON time_secondsf                =   4.8000000000000E+02
(PID.TID 0000.0001) %MON dynstat_eta_max              =   1.0960695958041E+03
(PID.TID 0000.0001) %MON dynstat_eta_min              =  -7.9110701095399E+02
(PID.TID 0000.0001) %MON dynstat_eta_mean             =  -2.0083778760245E-16
(PID.TID 0000.0001) %MON dynstat_eta_sd               =   1.0043790848178E+02
(PID.TID 0000.0001) %MON dynstat_eta_del2             =   3.8714082722766E+00
(PID.TID 0000.0001) %MON dynstat_uvel_max             =   7.3698693562823E+01
(PID.TID 0000.0001) %MON dynstat_uvel_min             =  -7.7066517716788E+01
(PID.TID 0000.0001) %MON dynstat_uvel_mean            =   1.6685727166143E+00
(PID.TID 0000.0001) %MON dynstat_uvel_sd              =   1.2686481854630E+01
(PID.TID 0000.0001) %MON dynstat_uvel_del2            =   8.9558455113323E-03
(PID.TID 0000.0001) %MON dynstat_vvel_max             =   7.1907309783412E+01
(PID.TID 0000.0001) %MON dynstat_vvel_min             =  -7.6767098958910E+01
(PID.TID 0000.0001) %MON dynstat_vvel_mean            =   1.7922995565678E+00
(PID.TID 0000.0001) %MON dynstat_vvel_sd              =   1.2645520732874E+01
(PID.TID 0000.0001) %MON dynstat_vvel_del2            =   8.7400554441925E-03
(PID.TID 0000.0001) %MON dynstat_wvel_max             =   1.7941596534816E+00
(PID.TID 0000.0001) %MON dynstat_wvel_min             =  -1.3415675416691E+00
(PID.TID 0000.0001) %MON dynstat_wvel_mean            =   7.0759487353087E-04
(PID.TID 0000.0001) %MON dynstat_wvel_sd              =   1.0267688655482E-01
(PID.TID 0000.0001) %MON dynstat_wvel_del2            =   5.0352916233419E-04
(PID.TID 0000.0001) %MON dynstat_theta_max            =   4.7777512303132E+02
(PID.TID 0000.0001) %MON dynstat_theta_min            =   2.2604608857824E+02
(PID.TID 0000.0001) %MON dynstat_theta_mean           =   3.2554772535164E+02
(PID.TID 0000.0001) %MON dynstat_theta_sd             =   3.8531805222808E+01
(PID.TID 0000.0001) %MON dynstat_theta_del2           =   4.0874191332317E-03
(PID.TID 0000.0001) %MON dynstat_salt_max             =   2.2240084119798E-02
(PID.TID 0000.0001) %MON dynstat_salt_min             =   0.0000000000000E+00
(PID.TID 0000.0001) %MON dynstat_salt_mean            =   2.5653955433037E-03
(PID.TID 0000.0001) %MON dynstat_salt_sd              =   4.0259517596560E-03
(PID.TID 0000.0001) %MON dynstat_salt_del2            =   1.9568527429846E-06
(PID.TID 0000.0001) %MON advcfl_uvel_max              =   5.8149394875614E-02
(PID.TID 0000.0001) %MON advcfl_vvel_max              =   7.5953305450442E-02
(PID.TID 0000.0001) %MON advcfl_wvel_max              =   8.6119663367115E-02
(PID.TID 0000.0001) %MON advcfl_W_hf_max              =   8.5010945092884E-02
(PID.TID 0000.0001) %MON am_eta_mean                  =   1.8161489384258E+08
(PID.TID 0000.0001) %MON am_uZo_mean                  =   3.5938067223108E+11
(PID.TID 0000.0001) %MON am_tot_mean                  =   3.5956228712492E+11
(PID.TID 0000.0001) %MON pe_b_mean                    =   4.5476380306393E-02
(PID.TID 0000.0001) %MON ke_max                       =   4.4719227046311E+03
(PID.TID 0000.0001) %MON ke_mean                      =   1.6243817427718E+02
(PID.TID 0000.0001) %MON ke_vol                       =   4.9652881814645E+19
(PID.TID 0000.0001) %MON vort_r_min                   =  -3.1200103817421E-04
(PID.TID 0000.0001) %MON vort_r_max                   =   2.3869465633027E-04
(PID.TID 0000.0001) %MON vort_a_mean                  =  -1.8043394429285E-07
(PID.TID 0000.0001) %MON vort_a_sd                    =   8.8965974077207E-05
(PID.TID 0000.0001) %MON vort_p_mean                  =  -1.8280145426587E-07
(PID.TID 0000.0001) %MON vort_p_sd                    =   9.1716953093258E-05
(PID.TID 0000.0001) %MON surfExpan_theta_mean         =  -8.8655178370382E-02
(PID.TID 0000.0001) %MON surfExpan_salt_mean          =  -1.3135726707202E-05
(PID.TID 0000.0001) %MON surfExpan_Heat_mean          =   3.9065196553634E+00
(PID.TID 0000.0001) %MON En_Budget_T2PE_mean          =  -6.7052492127711E+00
(PID.TID 0000.0001) // =======================================================
(PID.TID 0000.0001) // End MONITOR dynamic field statistics
(PID.TID 0000.0001) // =======================================================
 Current Date     19930110  Current Time        61000
 cg2d: Sum(rhs),rhsMax =  -5.82076609134674E-10  6.14037389475103E+04
(PID.TID 0000.0001)      cg2d_init_res =   1.28358556480923E+05
(PID.TID 0000.0001)      cg2d_iters(min,last) =      -1       7
(PID.TID 0000.0001)      cg2d_last_res =   5.71286378982803E-11
(PID.TID 0000.0001) // =======================================================
(PID.TID 0000.0001) // Begin MONITOR dynamic field statistics
(PID.TID 0000.0001) // =======================================================
(PID.TID 0000.0001) %MON time_tsnumber                =                     5
(PID.TID 0000.0001) %MON time_secondsf                =   6.0000000000000E+02
(PID.TID 0000.0001) %MON dynstat_eta_max              =   9.0105302887794E+02
(PID.TID 0000.0001) %MON dynstat_eta_min              =  -8.9849398333434E+02
(PID.TID 0000.0001) %MON dynstat_eta_mean             =  -8.0335115040981E-16
(PID.TID 0000.0001) %MON dynstat_eta_sd               =   1.2270524717345E+02
(PID.TID 0000.0001) %MON dynstat_eta_del2             =   4.3682527721234E+00
(PID.TID 0000.0001) %MON dynstat_uvel_max             =   7.3504857301782E+01
(PID.TID 0000.0001) %MON dynstat_uvel_min             =  -7.6999967435370E+01
(PID.TID 0000.0001) %MON dynstat_uvel_mean            =   1.6639510193578E+00
(PID.TID 0000.0001) %MON dynstat_uvel_sd              =   1.2687835576744E+01
(PID.TID 0000.0001) %MON dynstat_uvel_del2            =   8.9520954512775E-03
(PID.TID 0000.0001) %MON dynstat_vvel_max             =   7.2156887826574E+01
(PID.TID 0000.0001) %MON dynstat_vvel_min             =  -7.6565926039022E+01
(PID.TID 0000.0001) %MON dynstat_vvel_mean            =   1.7967559690357E+00
(PID.TID 0000.0001) %MON dynstat_vvel_sd              =   1.2644596300943E+01
(PID.TID 0000.0001) %MON dynstat_vvel_del2            =   8.7442905765486E-03
(PID.TID 0000.0001) %MON dynstat_wvel_max             =   1.5200793107800E+00
(PID.TID 0000.0001) %MON dynstat_wvel_min             =  -1.2273254418869E+00
(PID.TID 0000.0001) %MON dynstat_wvel_mean            =   8.0651155565060E-04
(PID.TID 0000.0001) %MON dynstat_wvel_sd              =   1.0239581466495E-01
(PID.TID 0000.0001) %MON dynstat_wvel_del2            =   4.7933758128195E-04
(PID.TID 0000.0001) %MON dynstat_theta_max            =   4.7792064232878E+02
(PID.TID 0000.0001) %MON dynstat_theta_min            =   2.2611731727584E+02
(PID.TID 0000.0001) %MON dynstat_theta_mean           =   3.2559027898043E+02
(PID.TID 0000.0001) %MON dynstat_theta_sd             =   3.8568492840939E+01
(PID.TID 0000.0001) %MON dynstat_theta_del2           =   4.1185319938392E-03
(PID.TID 0000.0001) %MON dynstat_salt_max             =   2.2162842442039E-02
(PID.TID 0000.0001) %MON dynstat_salt_min             =   0.0000000000000E+00
(PID.TID 0000.0001) %MON dynstat_salt_mean            =   2.5577129898101E-03
(PID.TID 0000.0001) %MON dynstat_salt_sd              =   4.0101635152538E-03
(PID.TID 0000.0001) %MON dynstat_salt_del2            =   1.9591412769553E-06
(PID.TID 0000.0001) %MON advcfl_uvel_max              =   5.8014017964863E-02
(PID.TID 0000.0001) %MON advcfl_vvel_max              =   7.6264157540377E-02
(PID.TID 0000.0001) %MON advcfl_wvel_max              =   7.2963806917439E-02
(PID.TID 0000.0001) %MON advcfl_W_hf_max              =   7.2142269790276E-02
(PID.TID 0000.0001) %MON am_eta_mean                  =   2.6765424293683E+08
(PID.TID 0000.0001) %MON am_uZo_mean                  =   3.5929272023443E+11
(PID.TID 0000.0001) %MON am_tot_mean                  =   3.5956037447737E+11
(PID.TID 0000.0001) %MON pe_b_mean                    =   6.8258801445069E-02
(PID.TID 0000.0001) %MON ke_max                       =   4.4659206417546E+03
(PID.TID 0000.0001) %MON ke_mean                      =   1.6244392053181E+02
(PID.TID 0000.0001) %MON ke_vol                       =   4.9652881814645E+19
(PID.TID 0000.0001) %MON vort_r_min                   =  -3.0506827453221E-04
(PID.TID 0000.0001) %MON vort_r_max                   =   2.3354248130343E-04
(PID.TID 0000.0001) %MON vort_a_mean                  =  -1.8043394429321E-07
(PID.TID 0000.0001) %MON vort_a_sd                    =   8.8962003309218E-05
(PID.TID 0000.0001) %MON vort_p_mean                  =  -1.8280145126930E-07
(PID.TID 0000.0001) %MON vort_p_sd                    =   9.1713852424684E-05
(PID.TID 0000.0001) %MON surfExpan_theta_mean         =  -1.0748918931553E-01
(PID.TID 0000.0001) %MON surfExpan_salt_mean          =  -1.5705662800882E-05
(PID.TID 0000.0001) %MON surfExpan_Heat_mean          =   4.0112393763601E+00
(PID.TID 0000.0001) %MON En_Budget_T2PE_mean          =  -7.5161534081821E+00
(PID.TID 0000.0001) // =======================================================
(PID.TID 0000.0001) // End MONITOR dynamic field statistics
(PID.TID 0000.0001) // =======================================================
 Current Date     19930110  Current Time        61200
 cg2d: Sum(rhs),rhsMax =  -6.98491930961609E-10  7.29551905547760E+04
(PID.TID 0000.0001)      cg2d_init_res =   1.33833625272004E+05
(PID.TID 0000.0001)      cg2d_iters(min,last) =      -1       7
(PID.TID 0000.0001)      cg2d_last_res =   5.98733408848648E-11
(PID.TID 0000.0001) // =======================================================
(PID.TID 0000.0001) // Begin MONITOR dynamic field statistics
(PID.TID 0000.0001) // =======================================================
(PID.TID 0000.0001) %MON time_tsnumber                =                     6
(PID.TID 0000.0001) %MON time_secondsf                =   7.2000000000000E+02
(PID.TID 0000.0001) %MON dynstat_eta_max              =   1.0696720817679E+03
(PID.TID 0000.0001) %MON dynstat_eta_min              =  -9.5544774530158E+02
(PID.TID 0000.0001) %MON dynstat_eta_mean             =  -2.0083778760245E-15
(PID.TID 0000.0001) %MON dynstat_eta_sd               =   1.4510752918166E+02
(PID.TID 0000.0001) %MON dynstat_eta_del2             =   4.9053778252015E+00
(PID.TID 0000.0001) %MON dynstat_uvel_max             =   7.3294747943254E+01
(PID.TID 0000.0001) %MON dynstat_uvel_min             =  -7.6934333633174E+01
(PID.TID 0000.0001) %MON dynstat_uvel_mean            =   1.6593338198664E+00
(PID.TID 0000.0001) %MON dynstat_uvel_sd              =   1.2689285239114E+01
(PID.TID 0000.0001) %MON dynstat_uvel_del2            =   8.9444525912040E-03
(PID.TID 0000.0001) %MON dynstat_vvel_max             =   7.2194187768881E+01
(PID.TID 0000.0001) %MON dynstat_vvel_min             =  -7.6369527649527E+01
(PID.TID 0000.0001) %MON dynstat_vvel_mean            =   1.8012079307043E+00
(PID.TID 0000.0001) %MON dynstat_vvel_sd              =   1.2643995479701E+01
(PID.TID 0000.0001) %MON dynstat_vvel_del2            =   8.7448866072843E-03
(PID.TID 0000.0001) %MON dynstat_wvel_max             =   1.2886295675721E+00
(PID.TID 0000.0001) %MON dynstat_wvel_min             =  -1.2374885715603E+00
(PID.TID 0000.0001) %MON dynstat_wvel_mean            =   8.7975463462099E-04
(PID.TID 0000.0001) %MON dynstat_wvel_sd              =   1.0229471447330E-01
(PID.TID 0000.0001) %MON dynstat_wvel_del2            =   4.6097650106385E-04
(PID.TID 0000.0001) %MON dynstat_theta_max            =   4.7806520094962E+02
(PID.TID 0000.0001) %MON dynstat_theta_min            =   2.2616928202379E+02
(PID.TID 0000.0001) %MON dynstat_theta_mean           =   3.2562678952379E+02
(PID.TID 0000.0001) %MON dynstat_theta_sd             =   3.8614570129242E+01
(PID.TID 0000.0001) %MON dynstat_theta_del2           =   4.1211854973033E-03
(PID.TID 0000.0001) %MON dynstat_salt_max             =   2.2057288789943E-02
(PID.TID 0000.0001) %MON dynstat_salt_min             =   0.0000000000000E+00
(PID.TID 0000.0001) %MON dynstat_salt_mean            =   2.5526616453421E-03
(PID.TID 0000.0001) %MON dynstat_salt_sd              =   3.9993128733294E-03
(PID.TID 0000.0001) %MON dynstat_salt_del2            =   1.9550696757382E-06
(PID.TID 0000.0001) %MON advcfl_uvel_max              =   5.7944006930222E-02
(PID.TID 0000.0001) %MON advcfl_vvel_max              =   7.6255949728472E-02
(PID.TID 0000.0001) %MON advcfl_wvel_max              =   6.1854219243460E-02
(PID.TID 0000.0001) %MON advcfl_W_hf_max              =   6.1343437975413E-02
(PID.TID 0000.0001) %MON am_eta_mean                  =   3.6634001742084E+08
(PID.TID 0000.0001) %MON am_uZo_mean                  =   3.5919237524889E+11
(PID.TID 0000.0001) %MON am_tot_mean                  =   3.5955871526632E+11
(PID.TID 0000.0001) %MON pe_b_mean                    =   9.5947551542605E-02
(PID.TID 0000.0001) %MON ke_max                       =   4.4597058273770E+03
(PID.TID 0000.0001) %MON ke_mean                      =   1.6245498694329E+02
(PID.TID 0000.0001) %MON ke_vol                       =   4.9652881814644E+19
(PID.TID 0000.0001) %MON vort_r_min                   =  -2.9816512243812E-04
(PID.TID 0000.0001) %MON vort_r_max                   =   2.2845040988993E-04
(PID.TID 0000.0001) %MON vort_a_mean                  =  -1.8043394429263E-07
(PID.TID 0000.0001) %MON vort_a_sd                    =   8.8957923703609E-05
(PID.TID 0000.0001) %MON vort_p_mean                  =  -1.8280144919741E-07
(PID.TID 0000.0001) %MON vort_p_sd                    =   9.1710984318896E-05
(PID.TID 0000.0001) %MON surfExpan_theta_mean         =  -1.2236803041879E-01
(PID.TID 0000.0001) %MON surfExpan_salt_mean          =  -1.7947218051667E-05
(PID.TID 0000.0001) %MON surfExpan_Heat_mean          =   4.1065480270492E+00
(PID.TID 0000.0001) %MON En_Budget_T2PE_mean          =  -8.0081251613952E+00
(PID.TID 0000.0001) // =======================================================
(PID.TID 0000.0001) // End MONITOR dynamic field statistics
(PID.TID 0000.0001) // =======================================================
 Current Date     19930110  Current Time        61400
 cg2d: Sum(rhs),rhsMax =   3.37604433298111E-09  8.85029757216982E+04
(PID.TID 0000.0001)      cg2d_init_res =   1.39641744615985E+05
(PID.TID 0000.0001)      cg2d_iters(min,last) =      -1       7
(PID.TID 0000.0001)      cg2d_last_res =   6.15611038726231E-11
(PID.TID 0000.0001) // =======================================================
(PID.TID 0000.0001) // Begin MONITOR dynamic field statistics
(PID.TID 0000.0001) // =======================================================
(PID.TID 0000.0001) %MON time_tsnumber                =                     7
(PID.TID 0000.0001) %MON time_secondsf                =   8.4000000000000E+02
(PID.TID 0000.0001) %MON dynstat_eta_max              =   1.2360904303763E+03
(PID.TID 0000.0001) %MON dynstat_eta_min              =  -1.1719218309833E+03
(PID.TID 0000.0001) %MON dynstat_eta_mean             =  -4.0167557520491E-15
(PID.TID 0000.0001) %MON dynstat_eta_sd               =   1.6778032890846E+02
(PID.TID 0000.0001) %MON dynstat_eta_del2             =   5.4054620756964E+00
(PID.TID 0000.0001) %MON dynstat_uvel_max             =   7.3089731029667E+01
(PID.TID 0000.0001) %MON dynstat_uvel_min             =  -7.6868448042687E+01
(PID.TID 0000.0001) %MON dynstat_uvel_mean            =   1.6547155945967E+00
(PID.TID 0000.0001) %MON dynstat_uvel_sd              =   1.2690904722417E+01
(PID.TID 0000.0001) %MON dynstat_uvel_del2            =   8.9358910029541E-03
(PID.TID 0000.0001) %MON dynstat_vvel_max             =   7.2371179792575E+01
(PID.TID 0000.0001) %MON dynstat_vvel_min             =  -7.6177495207192E+01
(PID.TID 0000.0001) %MON dynstat_vvel_mean            =   1.8056554906208E+00
(PID.TID 0000.0001) %MON dynstat_vvel_sd              =   1.2643711911226E+01
(PID.TID 0000.0001) %MON dynstat_vvel_del2            =   8.7444751274900E-03
(PID.TID 0000.0001) %MON dynstat_wvel_max             =   1.1523369833209E+00
(PID.TID 0000.0001) %MON dynstat_wvel_min             =  -1.2471040477307E+00
(PID.TID 0000.0001) %MON dynstat_wvel_mean            =   9.2759313354906E-04
(PID.TID 0000.0001) %MON dynstat_wvel_sd              =   1.0236040110290E-01
(PID.TID 0000.0001) %MON dynstat_wvel_del2            =   4.4760418111031E-04
(PID.TID 0000.0001) %MON dynstat_theta_max            =   4.7820889452194E+02
(PID.TID 0000.0001) %MON dynstat_theta_min            =   2.2622145689211E+02
(PID.TID 0000.0001) %MON dynstat_theta_mean           =   3.2566331392580E+02
(PID.TID 0000.0001) %MON dynstat_theta_sd             =   3.8661138743956E+01
(PID.TID 0000.0001) %MON dynstat_theta_del2           =   4.1293080490697E-03
(PID.TID 0000.0001) %MON dynstat_salt_max             =   2.1966485769330E-02
(PID.TID 0000.0001) %MON dynstat_salt_min             =   0.0000000000000E+00
(PID.TID 0000.0001) %MON dynstat_salt_mean            =   2.5476089431341E-03
(PID.TID 0000.0001) %MON dynstat_salt_sd              =   3.9890600342861E-03
(PID.TID 0000.0001) %MON dynstat_salt_del2            =   1.9485872382008E-06
(PID.TID 0000.0001) %MON advcfl_uvel_max              =   5.7900960157174E-02
(PID.TID 0000.0001) %MON advcfl_vvel_max              =   7.6014170664854E-02
(PID.TID 0000.0001) %MON advcfl_wvel_max              =   5.9860994291075E-02
(PID.TID 0000.0001) %MON advcfl_W_hf_max              =   6.0175313377228E-02
(PID.TID 0000.0001) %MON am_eta_mean                  =   4.7761075805025E+08
(PID.TID 0000.0001) %MON am_uZo_mean                  =   3.5908022353374E+11
(PID.TID 0000.0001) %MON am_tot_mean                  =   3.5955783429179E+11
(PID.TID 0000.0001) %MON pe_b_mean                    =   1.2882965347323E-01
(PID.TID 0000.0001) %MON ke_max                       =   4.4533024997087E+03
(PID.TID 0000.0001) %MON ke_mean                      =   1.6247221624551E+02
(PID.TID 0000.0001) %MON ke_vol                       =   4.9652881814645E+19
(PID.TID 0000.0001) %MON vort_r_min                   =  -2.9128131412374E-04
(PID.TID 0000.0001) %MON vort_r_max                   =   2.2341264510049E-04
(PID.TID 0000.0001) %MON vort_a_mean                  =  -1.8043394429281E-07
(PID.TID 0000.0001) %MON vort_a_sd                    =   8.8953886814019E-05
(PID.TID 0000.0001) %MON vort_p_mean                  =  -1.8280144806741E-07
(PID.TID 0000.0001) %MON vort_p_sd                    =   9.1708395958235E-05
(PID.TID 0000.0001) %MON surfExpan_theta_mean         =  -1.3328757327757E-01
(PID.TID 0000.0001) %MON surfExpan_salt_mean          =  -1.9764507398982E-05
(PID.TID 0000.0001) %MON surfExpan_Heat_mean          =   4.1868031562215E+00
(PID.TID 0000.0001) %MON En_Budget_T2PE_mean          =  -8.1753791704846E+00
(PID.TID 0000.0001) // =======================================================
(PID.TID 0000.0001) // End MONITOR dynamic field statistics
(PID.TID 0000.0001) // =======================================================
 Current Date     19930110  Current Time        61600
 cg2d: Sum(rhs),rhsMax =   4.65661287307739E-10  1.08671924843911E+05
(PID.TID 0000.0001)      cg2d_init_res =   1.45529301515712E+05
(PID.TID 0000.0001)      cg2d_iters(min,last) =      -1       7
(PID.TID 0000.0001)      cg2d_last_res =   6.34180523159881E-11
(PID.TID 0000.0001) // =======================================================
(PID.TID 0000.0001) // Begin MONITOR dynamic field statistics
(PID.TID 0000.0001) // =======================================================
(PID.TID 0000.0001) %MON time_tsnumber                =                     8
(PID.TID 0000.0001) %MON time_secondsf                =   9.6000000000000E+02
(PID.TID 0000.0001) %MON dynstat_eta_max              =   1.5197363899208E+03
(PID.TID 0000.0001) %MON dynstat_eta_min              =  -1.4002301320728E+03
(PID.TID 0000.0001) %MON dynstat_eta_mean             =  -8.0335115040981E-15
(PID.TID 0000.0001) %MON dynstat_eta_sd               =   1.9085303233512E+02
(PID.TID 0000.0001) %MON dynstat_eta_del2             =   5.8240506787109E+00
(PID.TID 0000.0001) %MON dynstat_uvel_max             =   7.2905320486913E+01
(PID.TID 0000.0001) %MON dynstat_uvel_min             =  -7.6801240355350E+01
(PID.TID 0000.0001) %MON dynstat_uvel_mean            =   1.6500874351005E+00
(PID.TID 0000.0001) %MON dynstat_uvel_sd              =   1.2692558305592E+01
(PID.TID 0000.0001) %MON dynstat_uvel_del2            =   8.9298491730649E-03
(PID.TID 0000.0001) %MON dynstat_vvel_max             =   7.2530630256938E+01
(PID.TID 0000.0001) %MON dynstat_vvel_min             =  -7.5989806761400E+01
(PID.TID 0000.0001) %MON dynstat_vvel_mean            =   1.8101171455765E+00
(PID.TID 0000.0001) %MON dynstat_vvel_sd              =   1.2643536754666E+01
(PID.TID 0000.0001) %MON dynstat_vvel_del2            =   8.7462650180545E-03
(PID.TID 0000.0001) %MON dynstat_wvel_max             =   1.0727337985889E+00
(PID.TID 0000.0001) %MON dynstat_wvel_min             =  -1.2558680573271E+00
(PID.TID 0000.0001) %MON dynstat_wvel_mean            =   9.5244797731892E-04
(PID.TID 0000.0001) %MON dynstat_wvel_sd              =   1.0257617340767E-01
(PID.TID 0000.0001) %MON dynstat_wvel_del2            =   4.3793540027076E-04
(PID.TID 0000.0001) %MON dynstat_theta_max            =   4.7835149795549E+02
(PID.TID 0000.0001) %MON dynstat_theta_min            =   2.2627385943460E+02
(PID.TID 0000.0001) %MON dynstat_theta_mean           =   3.2569982939689E+02
(PID.TID 0000.0001) %MON dynstat_theta_sd             =   3.8708196250642E+01
(PID.TID 0000.0001) %MON dynstat_theta_del2           =   4.1450723693056E-03
(PID.TID 0000.0001) %MON dynstat_salt_max             =   2.1875647142961E-02
(PID.TID 0000.0001) %MON dynstat_salt_min             =   0.0000000000000E+00
(PID.TID 0000.0001) %MON dynstat_salt_mean            =   2.5425558131774E-03
(PID.TID 0000.0001) %MON dynstat_salt_sd              =   3.9789478217263E-03
(PID.TID 0000.0001) %MON dynstat_salt_del2            =   1.9479587521374E-06
(PID.TID 0000.0001) %MON advcfl_uvel_max              =   5.7845022730042E-02
(PID.TID 0000.0001) %MON advcfl_vvel_max              =   7.5662293092537E-02
(PID.TID 0000.0001) %MON advcfl_wvel_max              =   6.0281666751702E-02
(PID.TID 0000.0001) %MON advcfl_W_hf_max              =   6.0717653114907E-02
(PID.TID 0000.0001) %MON am_eta_mean                  =   6.0136648678942E+08
(PID.TID 0000.0001) %MON am_uZo_mean                  =   3.5895600848121E+11
(PID.TID 0000.0001) %MON am_tot_mean                  =   3.5955737496800E+11
(PID.TID 0000.0001) %MON pe_b_mean                    =   1.6725859617077E-01
(PID.TID 0000.0001) %MON ke_max                       =   4.4467537706641E+03
(PID.TID 0000.0001) %MON ke_mean                      =   1.6249129080875E+02
(PID.TID 0000.0001) %MON ke_vol                       =   4.9652881814645E+19
(PID.TID 0000.0001) %MON vort_r_min                   =  -2.8439393511981E-04
(PID.TID 0000.0001) %MON vort_r_max                   =   2.1842510286245E-04
(PID.TID 0000.0001) %MON vort_a_mean                  =  -1.8043394429283E-07
(PID.TID 0000.0001) %MON vort_a_sd                    =   8.8949728533863E-05
(PID.TID 0000.0001) %MON vort_p_mean                  =  -1.8280144758712E-07
(PID.TID 0000.0001) %MON vort_p_sd                    =   9.1706010329126E-05
(PID.TID 0000.0001) %MON surfExpan_theta_mean         =  -1.4046758935838E-01
(PID.TID 0000.0001) %MON surfExpan_salt_mean          =  -2.1118566755357E-05
(PID.TID 0000.0001) %MON surfExpan_Heat_mean          =   4.2659777785235E+00
(PID.TID 0000.0001) %MON En_Budget_T2PE_mean          =  -8.0494407772214E+00
(PID.TID 0000.0001) // =======================================================
(PID.TID 0000.0001) // End MONITOR dynamic field statistics
(PID.TID 0000.0001) // =======================================================
 Current Date     19930110  Current Time        61800
 cg2d: Sum(rhs),rhsMax =   4.65661287307739E-10  1.28864285104925E+05
(PID.TID 0000.0001)      cg2d_init_res =   1.50984611660632E+05
(PID.TID 0000.0001)      cg2d_iters(min,last) =      -1       7
(PID.TID 0000.0001)      cg2d_last_res =   6.70166971243503E-11
(PID.TID 0000.0001) // =======================================================
(PID.TID 0000.0001) // Begin MONITOR dynamic field statistics
(PID.TID 0000.0001) // =======================================================
(PID.TID 0000.0001) %MON time_tsnumber                =                     9
(PID.TID 0000.0001) %MON time_secondsf                =   1.0800000000000E+03
(PID.TID 0000.0001) %MON dynstat_eta_max              =   1.8042529614208E+03
(PID.TID 0000.0001) %MON dynstat_eta_min              =  -1.6220463833853E+03
(PID.TID 0000.0001) %MON dynstat_eta_mean             =   7.2301603536883E-15
(PID.TID 0000.0001) %MON dynstat_eta_sd               =   2.1445587145119E+02
(PID.TID 0000.0001) %MON dynstat_eta_del2             =   6.1669532405240E+00
(PID.TID 0000.0001) %MON dynstat_uvel_max             =   7.2750521967546E+01
(PID.TID 0000.0001) %MON dynstat_uvel_min             =  -7.6731814942174E+01
(PID.TID 0000.0001) %MON dynstat_uvel_mean            =   1.6454581426132E+00
(PID.TID 0000.0001) %MON dynstat_uvel_sd              =   1.2694258076240E+01
(PID.TID 0000.0001) %MON dynstat_uvel_del2            =   8.9271042941286E-03
(PID.TID 0000.0001) %MON dynstat_vvel_max             =   7.2653132730437E+01
(PID.TID 0000.0001) %MON dynstat_vvel_min             =  -7.5806164698032E+01
(PID.TID 0000.0001) %MON dynstat_vvel_mean            =   1.8145766749666E+00
(PID.TID 0000.0001) %MON dynstat_vvel_sd              =   1.2643450176061E+01
(PID.TID 0000.0001) %MON dynstat_vvel_del2            =   8.7503846528483E-03
(PID.TID 0000.0001) %MON dynstat_wvel_max             =   9.9184909224393E-01
(PID.TID 0000.0001) %MON dynstat_wvel_min             =  -1.2636099912265E+00
(PID.TID 0000.0001) %MON dynstat_wvel_mean            =   9.5707479204376E-04
(PID.TID 0000.0001) %MON dynstat_wvel_sd              =   1.0294393830268E-01
(PID.TID 0000.0001) %MON dynstat_wvel_del2            =   4.3097531194932E-04
(PID.TID 0000.0001) %MON dynstat_theta_max            =   4.7849306967424E+02
(PID.TID 0000.0001) %MON dynstat_theta_min            =   2.2632544462352E+02
(PID.TID 0000.0001) %MON dynstat_theta_mean           =   3.2573635426816E+02
(PID.TID 0000.0001) %MON dynstat_theta_sd             =   3.8755744477210E+01
(PID.TID 0000.0001) %MON dynstat_theta_del2           =   4.1652504195927E-03
(PID.TID 0000.0001) %MON dynstat_salt_max             =   2.1789153583759E-02
(PID.TID 0000.0001) %MON dynstat_salt_min             =   0.0000000000000E+00
(PID.TID 0000.0001) %MON dynstat_salt_mean            =   2.5374980833631E-03
(PID.TID 0000.0001) %MON dynstat_salt_sd              =   3.9692231486522E-03
(PID.TID 0000.0001) %MON dynstat_salt_del2            =   1.9455633647650E-06
(PID.TID 0000.0001) %MON advcfl_uvel_max              =   5.7748529047623E-02
(PID.TID 0000.0001) %MON advcfl_vvel_max              =   7.5309170720092E-02
(PID.TID 0000.0001) %MON advcfl_wvel_max              =   6.0653279578872E-02
(PID.TID 0000.0001) %MON advcfl_W_hf_max              =   6.1227265338223E-02
(PID.TID 0000.0001) %MON am_eta_mean                  =   7.3751633864638E+08
(PID.TID 0000.0001) %MON am_uZo_mean                  =   3.5882029152077E+11
(PID.TID 0000.0001) %MON am_tot_mean                  =   3.5955780785942E+11
(PID.TID 0000.0001) %MON pe_b_mean                    =   2.1167101955036E-01
(PID.TID 0000.0001) %MON ke_max                       =   4.4401294827789E+03
(PID.TID 0000.0001) %MON ke_mean                      =   1.6251209946056E+02
(PID.TID 0000.0001) %MON ke_vol                       =   4.9652881814645E+19
(PID.TID 0000.0001) %MON vort_r_min                   =  -2.7747302430163E-04
(PID.TID 0000.0001) %MON vort_r_max                   =   2.1348437501411E-04
(PID.TID 0000.0001) %MON vort_a_mean                  =  -1.8043394429289E-07
(PID.TID 0000.0001) %MON vort_a_sd                    =   8.8945540687219E-05
(PID.TID 0000.0001) %MON vort_p_mean                  =  -1.8280144732772E-07
(PID.TID 0000.0001) %MON vort_p_sd                    =   9.1703876982933E-05
(PID.TID 0000.0001) %MON surfExpan_theta_mean         =  -1.4422001459145E-01
(PID.TID 0000.0001) %MON surfExpan_salt_mean          =  -2.1987583384339E-05
(PID.TID 0000.0001) %MON surfExpan_Heat_mean          =   4.3538972565488E+00
(PID.TID 0000.0001) %MON En_Budget_T2PE_mean          =  -7.6651118476430E+00
(PID.TID 0000.0001) // =======================================================
(PID.TID 0000.0001) // End MONITOR dynamic field statistics
(PID.TID 0000.0001) // =======================================================
 Current Date     19930110  Current Time        62000
 cg2d: Sum(rhs),rhsMax =   1.62981450557709E-09  1.48542748608401E+05
(PID.TID 0000.0001)      cg2d_init_res =   1.55542897458871E+05
(PID.TID 0000.0001)      cg2d_iters(min,last) =      -1       7
(PID.TID 0000.0001)      cg2d_last_res =   7.09541047263199E-11
(PID.TID 0000.0001) // =======================================================
(PID.TID 0000.0001) // Begin MONITOR dynamic field statistics
(PID.TID 0000.0001) // =======================================================
(PID.TID 0000.0001) %MON time_tsnumber                =                    10
(PID.TID 0000.0001) %MON time_secondsf                =   1.2000000000000E+03
(PID.TID 0000.0001) %MON dynstat_eta_max              =   2.0821145391617E+03
(PID.TID 0000.0001) %MON dynstat_eta_min              =  -1.8320191872484E+03
(PID.TID 0000.0001) %MON dynstat_eta_mean             =  -1.6067023008196E-15
(PID.TID 0000.0001) %MON dynstat_eta_sd               =   2.3865094239762E+02
(PID.TID 0000.0001) %MON dynstat_eta_del2             =   6.4565810445615E+00
(PID.TID 0000.0001) %MON dynstat_uvel_max             =   7.2626871703874E+01
(PID.TID 0000.0001) %MON dynstat_uvel_min             =  -7.6659575759722E+01
(PID.TID 0000.0001) %MON dynstat_uvel_mean            =   1.6408236228754E+00
(PID.TID 0000.0001) %MON dynstat_uvel_sd              =   1.2695916073219E+01
(PID.TID 0000.0001) %MON dynstat_uvel_del2            =   8.9265656931144E-03
(PID.TID 0000.0001) %MON dynstat_vvel_max             =   7.2731566164270E+01
(PID.TID 0000.0001) %MON dynstat_vvel_min             =  -7.5626013758340E+01
(PID.TID 0000.0001) %MON dynstat_vvel_mean            =   1.8190422590775E+00
(PID.TID 0000.0001) %MON dynstat_vvel_sd              =   1.2643299859750E+01
(PID.TID 0000.0001) %MON dynstat_vvel_del2            =   8.7556520081487E-03
(PID.TID 0000.0001) %MON dynstat_wvel_max             =   9.0143033059987E-01
(PID.TID 0000.0001) %MON dynstat_wvel_min             =  -1.2701178644002E+00
(PID.TID 0000.0001) %MON dynstat_wvel_mean            =   9.4471531205060E-04
(PID.TID 0000.0001) %MON dynstat_wvel_sd              =   1.0347415285122E-01
(PID.TID 0000.0001) %MON dynstat_wvel_del2            =   4.2631095286251E-04
(PID.TID 0000.0001) %MON dynstat_theta_max            =   4.7863341620568E+02
(PID.TID 0000.0001) %MON dynstat_theta_min            =   2.2637700953651E+02
(PID.TID 0000.0001) %MON dynstat_theta_mean           =   3.2577287148965E+02
(PID.TID 0000.0001) %MON dynstat_theta_sd             =   3.8803776415347E+01
(PID.TID 0000.0001) %MON dynstat_theta_del2           =   4.1916277753486E-03
(PID.TID 0000.0001) %MON dynstat_salt_max             =   2.1702631928231E-02
(PID.TID 0000.0001) %MON dynstat_salt_min             =   0.0000000000000E+00
(PID.TID 0000.0001) %MON dynstat_salt_mean            =   2.5324399946784E-03
(PID.TID 0000.0001) %MON dynstat_salt_sd              =   3.9596126938719E-03
(PID.TID 0000.0001) %MON dynstat_salt_del2            =   1.9470500164527E-06
(PID.TID 0000.0001) %MON advcfl_uvel_max              =   5.7602215417371E-02
(PID.TID 0000.0001) %MON advcfl_vvel_max              =   7.5024558070650E-02
(PID.TID 0000.0001) %MON advcfl_wvel_max              =   6.0965657491210E-02
(PID.TID 0000.0001) %MON advcfl_W_hf_max              =   6.1691304159055E-02
(PID.TID 0000.0001) %MON am_eta_mean                  =   8.8595441475775E+08
(PID.TID 0000.0001) %MON am_uZo_mean                  =   3.5867281494796E+11
(PID.TID 0000.0001) %MON am_tot_mean                  =   3.5955876936272E+11
(PID.TID 0000.0001) %MON pe_b_mean                    =   2.6245672709120E-01
(PID.TID 0000.0001) %MON ke_max                       =   4.4335189079938E+03
(PID.TID 0000.0001) %MON ke_mean                      =   1.6253162635224E+02
(PID.TID 0000.0001) %MON ke_vol                       =   4.9652881814645E+19
(PID.TID 0000.0001) %MON vort_r_min                   =  -2.7134830793437E-04
(PID.TID 0000.0001) %MON vort_r_max                   =   2.0858654424662E-04
(PID.TID 0000.0001) %MON vort_a_mean                  =  -1.8043394429287E-07
(PID.TID 0000.0001) %MON vort_a_sd                    =   8.8941245330291E-05
(PID.TID 0000.0001) %MON vort_p_mean                  =  -1.8280144686884E-07
(PID.TID 0000.0001) %MON vort_p_sd                    =   9.1701935072813E-05
(PID.TID 0000.0001) %MON surfExpan_theta_mean         =  -1.4490209519405E-01
(PID.TID 0000.0001) %MON surfExpan_salt_mean          =  -2.2370580918462E-05
(PID.TID 0000.0001) %MON surfExpan_Heat_mean          =   4.4624782510637E+00
(PID.TID 0000.0001) %MON En_Budget_T2PE_mean          =  -7.0629600565779E+00
(PID.TID 0000.0001) // =======================================================
(PID.TID 0000.0001) // End MONITOR dynamic field statistics
(PID.TID 0000.0001) // =======================================================
 Current Date     19930110  Current Time        62200
 cg2d: Sum(rhs),rhsMax =   2.32830643653870E-10  1.67244400526433E+05
(PID.TID 0000.0001)      cg2d_init_res =   1.58966231672086E+05
(PID.TID 0000.0001)      cg2d_iters(min,last) =      -1       7
(PID.TID 0000.0001)      cg2d_last_res =   7.48380593097099E-11
(PID.TID 0000.0001) // =======================================================
(PID.TID 0000.0001) // Begin MONITOR dynamic field statistics
(PID.TID 0000.0001) // =======================================================
(PID.TID 0000.0001) %MON time_tsnumber                =                    11
(PID.TID 0000.0001) %MON time_secondsf                =   1.3200000000000E+03
(PID.TID 0000.0001) %MON dynstat_eta_max              =   2.3468150899251E+03
(PID.TID 0000.0001) %MON dynstat_eta_min              =  -2.0258999821779E+03
(PID.TID 0000.0001) %MON dynstat_eta_mean             =   1.2050267256147E-14
(PID.TID 0000.0001) %MON dynstat_eta_sd               =   2.6339759874875E+02
(PID.TID 0000.0001) %MON dynstat_eta_del2             =   6.7052675896031E+00
(PID.TID 0000.0001) %MON dynstat_uvel_max             =   7.2529954358121E+01
(PID.TID 0000.0001) %MON dynstat_uvel_min             =  -7.6584323571764E+01
(PID.TID 0000.0001) %MON dynstat_uvel_mean            =   1.6361895128808E+00
(PID.TID 0000.0001) %MON dynstat_uvel_sd              =   1.2697525356444E+01
(PID.TID 0000.0001) %MON dynstat_uvel_del2            =   8.9274488113841E-03
(PID.TID 0000.0001) %MON dynstat_vvel_max             =   7.2769444997632E+01
(PID.TID 0000.0001) %MON dynstat_vvel_min             =  -7.5448566818918E+01
(PID.TID 0000.0001) %MON dynstat_vvel_mean            =   1.8235032943476E+00
(PID.TID 0000.0001) %MON dynstat_vvel_sd              =   1.2643057876876E+01
(PID.TID 0000.0001) %MON dynstat_vvel_del2            =   8.7610912632323E-03
(PID.TID 0000.0001) %MON dynstat_wvel_max             =   8.0326645741207E-01
(PID.TID 0000.0001) %MON dynstat_wvel_min             =  -1.2752855264532E+00
(PID.TID 0000.0001) %MON dynstat_wvel_mean            =   9.1853933457946E-04
(PID.TID 0000.0001) %MON dynstat_wvel_sd              =   1.0419092676860E-01
(PID.TID 0000.0001) %MON dynstat_wvel_del2            =   4.2415454704052E-04
(PID.TID 0000.0001) %MON dynstat_theta_max            =   4.7877260018571E+02
(PID.TID 0000.0001) %MON dynstat_theta_min            =   2.2642620773191E+02
(PID.TID 0000.0001) %MON dynstat_theta_mean           =   3.2579799486860E+02
(PID.TID 0000.0001) %MON dynstat_theta_sd             =   3.8852353994158E+01
(PID.TID 0000.0001) %MON dynstat_theta_del2           =   4.1880166976065E-03
(PID.TID 0000.0001) %MON dynstat_salt_max             =   2.1701998129267E-02
(PID.TID 0000.0001) %MON dynstat_salt_min             =   0.0000000000000E+00
(PID.TID 0000.0001) %MON dynstat_salt_mean            =   2.5311138808068E-03
(PID.TID 0000.0001) %MON dynstat_salt_sd              =   3.9564511345406E-03
(PID.TID 0000.0001) %MON dynstat_salt_del2            =   1.9422749182786E-06
(PID.TID 0000.0001) %MON advcfl_uvel_max              =   5.7414846401651E-02
(PID.TID 0000.0001) %MON advcfl_vvel_max              =   7.4833772514253E-02
(PID.TID 0000.0001) %MON advcfl_wvel_max              =   6.1213705269752E-02
(PID.TID 0000.0001) %MON advcfl_W_hf_max              =   6.2101625620181E-02
(PID.TID 0000.0001) %MON am_eta_mean                  =   1.0465775698044E+09
(PID.TID 0000.0001) %MON am_uZo_mean                  =   3.5851398350989E+11
(PID.TID 0000.0001) %MON am_tot_mean                  =   3.5956056107970E+11
(PID.TID 0000.0001) %MON pe_b_mean                    =   3.1981909937927E-01
(PID.TID 0000.0001) %MON ke_max                       =   4.4270272958936E+03
(PID.TID 0000.0001) %MON ke_mean                      =   1.6254942283927E+02
(PID.TID 0000.0001) %MON ke_vol                       =   4.9652881814645E+19
(PID.TID 0000.0001) %MON vort_r_min                   =  -2.6530924865821E-04
(PID.TID 0000.0001) %MON vort_r_max                   =   2.0372556632799E-04
(PID.TID 0000.0001) %MON vort_a_mean                  =  -1.8043394429268E-07
(PID.TID 0000.0001) %MON vort_a_sd                    =   8.8936906481156E-05
(PID.TID 0000.0001) %MON vort_p_mean                  =  -1.8280144590221E-07
(PID.TID 0000.0001) %MON vort_p_sd                    =   9.1700188706620E-05
(PID.TID 0000.0001) %MON surfExpan_theta_mean         =  -1.4173977177572E-01
(PID.TID 0000.0001) %MON surfExpan_salt_mean          =  -2.2652596959924E-05
(PID.TID 0000.0001) %MON surfExpan_Heat_mean          =   4.6939212089549E+00
(PID.TID 0000.0001) %MON En_Budget_T2PE_mean          =  -6.3111335862045E+00
(PID.TID 0000.0001) // =======================================================
(PID.TID 0000.0001) // End MONITOR dynamic field statistics
(PID.TID 0000.0001) // =======================================================
 Current Date     19930110  Current Time        62400
 cg2d: Sum(rhs),rhsMax =   1.86264514923096E-09  1.84590139536137E+05
(PID.TID 0000.0001)      cg2d_init_res =   1.61127140807642E+05
(PID.TID 0000.0001)      cg2d_iters(min,last) =      -1       7
(PID.TID 0000.0001)      cg2d_last_res =   7.84709443648003E-11
(PID.TID 0000.0001) // =======================================================
(PID.TID 0000.0001) // Begin MONITOR dynamic field statistics
(PID.TID 0000.0001) // =======================================================
(PID.TID 0000.0001) %MON time_tsnumber                =                    12
(PID.TID 0000.0001) %MON time_secondsf                =   1.4400000000000E+03
(PID.TID 0000.0001) %MON dynstat_eta_max              =   2.5930025221965E+03
(PID.TID 0000.0001) %MON dynstat_eta_min              =  -2.2386806565980E+03
(PID.TID 0000.0001) %MON dynstat_eta_mean             =  -8.0335115040981E-15
(PID.TID 0000.0001) %MON dynstat_eta_sd               =   2.8855032722488E+02
(PID.TID 0000.0001) %MON dynstat_eta_del2             =   6.9109513764778E+00
(PID.TID 0000.0001) %MON dynstat_uvel_max             =   7.2450285770589E+01
(PID.TID 0000.0001) %MON dynstat_uvel_min             =  -7.6506361083265E+01
(PID.TID 0000.0001) %MON dynstat_uvel_mean            =   1.6315671261063E+00
(PID.TID 0000.0001) %MON dynstat_uvel_sd              =   1.2699006442750E+01
(PID.TID 0000.0001) %MON dynstat_uvel_del2            =   8.9291855113814E-03
(PID.TID 0000.0001) %MON dynstat_vvel_max             =   7.2778082686823E+01
(PID.TID 0000.0001) %MON dynstat_vvel_min             =  -7.5273130609977E+01
(PID.TID 0000.0001) %MON dynstat_vvel_mean            =   1.8279493287041E+00
(PID.TID 0000.0001) %MON dynstat_vvel_sd              =   1.2642632228173E+01
(PID.TID 0000.0001) %MON dynstat_vvel_del2            =   8.7660693509753E-03
(PID.TID 0000.0001) %MON dynstat_wvel_max             =   7.6801667369028E-01
(PID.TID 0000.0001) %MON dynstat_wvel_min             =  -1.2794086499080E+00
(PID.TID 0000.0001) %MON dynstat_wvel_mean            =   8.8400445170350E-04
(PID.TID 0000.0001) %MON dynstat_wvel_sd              =   1.0504075504148E-01
(PID.TID 0000.0001) %MON dynstat_wvel_del2            =   4.2416789323198E-04
(PID.TID 0000.0001) %MON dynstat_theta_max            =   4.7891044307179E+02
(PID.TID 0000.0001) %MON dynstat_theta_min            =   2.2647514996525E+02
(PID.TID 0000.0001) %MON dynstat_theta_mean           =   3.2582311187727E+02
(PID.TID 0000.0001) %MON dynstat_theta_sd             =   3.8901358150236E+01
(PID.TID 0000.0001) %MON dynstat_theta_del2           =   4.1848891540248E-03
(PID.TID 0000.0001) %MON dynstat_salt_max             =   2.1701385021203E-02
(PID.TID 0000.0001) %MON dynstat_salt_min             =   0.0000000000000E+00
(PID.TID 0000.0001) %MON dynstat_salt_mean            =   2.5297873452726E-03
(PID.TID 0000.0001) %MON dynstat_salt_sd              =   3.9533203728407E-03
(PID.TID 0000.0001) %MON dynstat_salt_del2            =   1.9392507003846E-06
(PID.TID 0000.0001) %MON advcfl_uvel_max              =   5.7206719653128E-02
(PID.TID 0000.0001) %MON advcfl_vvel_max              =   7.4727831055912E-02
(PID.TID 0000.0001) %MON advcfl_wvel_max              =   6.1411615195584E-02
(PID.TID 0000.0001) %MON advcfl_W_hf_max              =   6.2469400482939E-02
(PID.TID 0000.0001) %MON am_eta_mean                  =   1.2192715252191E+09
(PID.TID 0000.0001) %MON am_uZo_mean                  =   3.5834365745468E+11
(PID.TID 0000.0001) %MON am_tot_mean                  =   3.5956292897990E+11
(PID.TID 0000.0001) %MON pe_b_mean                    =   3.8366468273186E-01
(PID.TID 0000.0001) %MON ke_max                       =   4.4207761362672E+03
(PID.TID 0000.0001) %MON ke_mean                      =   1.6256332869666E+02
(PID.TID 0000.0001) %MON ke_vol                       =   4.9652881814645E+19
(PID.TID 0000.0001) %MON vort_r_min                   =  -2.5924892753402E-04
(PID.TID 0000.0001) %MON vort_r_max                   =   1.9889756441225E-04
(PID.TID 0000.0001) %MON vort_a_mean                  =  -1.8043394429262E-07
(PID.TID 0000.0001) %MON vort_a_sd                    =   8.8932486627819E-05
(PID.TID 0000.0001) %MON vort_p_mean                  =  -1.8280144427295E-07
(PID.TID 0000.0001) %MON vort_p_sd                    =   9.1698628836182E-05
(PID.TID 0000.0001) %MON surfExpan_theta_mean         =  -1.3587440136077E-01
(PID.TID 0000.0001) %MON surfExpan_salt_mean          =  -2.2462048026384E-05
(PID.TID 0000.0001) %MON surfExpan_Heat_mean          =   5.0305156632463E+00
(PID.TID 0000.0001) %MON En_Budget_T2PE_mean          =  -5.4662340497310E+00
(PID.TID 0000.0001) // =======================================================
(PID.TID 0000.0001) // End MONITOR dynamic field statistics
(PID.TID 0000.0001) // =======================================================
 Current Date     19930110  Current Time        62600
 cg2d: Sum(rhs),rhsMax =  -2.32830643653870E-09  2.00292505541113E+05
(PID.TID 0000.0001)      cg2d_init_res =   1.62144983695888E+05
(PID.TID 0000.0001)      cg2d_iters(min,last) =      -1       7
(PID.TID 0000.0001)      cg2d_last_res =   8.16046476882118E-11
(PID.TID 0000.0001) // =======================================================
(PID.TID 0000.0001) // Begin MONITOR dynamic field statistics
(PID.TID 0000.0001) // =======================================================
(PID.TID 0000.0001) %MON time_tsnumber                =                    13
(PID.TID 0000.0001) %MON time_secondsf                =   1.5600000000000E+03
(PID.TID 0000.0001) %MON dynstat_eta_max              =   2.8165854037042E+03
(PID.TID 0000.0001) %MON dynstat_eta_min              =  -2.4856837778810E+03
(PID.TID 0000.0001) %MON dynstat_eta_mean             =  -8.0335115040981E-15
(PID.TID 0000.0001) %MON dynstat_eta_sd               =   3.1392428067118E+02
(PID.TID 0000.0001) %MON dynstat_eta_del2             =   7.0675450874457E+00
(PID.TID 0000.0001) %MON dynstat_uvel_max             =   7.2379632998146E+01
(PID.TID 0000.0001) %MON dynstat_uvel_min             =  -7.6426403834152E+01
(PID.TID 0000.0001) %MON dynstat_uvel_mean            =   1.6269595672717E+00
(PID.TID 0000.0001) %MON dynstat_uvel_sd              =   1.2700345745797E+01
(PID.TID 0000.0001) %MON dynstat_uvel_del2            =   8.9319348484531E-03
(PID.TID 0000.0001) %MON dynstat_vvel_max             =   7.2769767993152E+01
(PID.TID 0000.0001) %MON dynstat_vvel_min             =  -7.5098636054566E+01
(PID.TID 0000.0001) %MON dynstat_vvel_mean            =   1.8323714525785E+00
(PID.TID 0000.0001) %MON dynstat_vvel_sd              =   1.2642008375870E+01
(PID.TID 0000.0001) %MON dynstat_vvel_del2            =   8.7708342515402E-03
(PID.TID 0000.0001) %MON dynstat_wvel_max             =   7.7443417157028E-01
(PID.TID 0000.0001) %MON dynstat_wvel_min             =  -1.2824489464251E+00
(PID.TID 0000.0001) %MON dynstat_wvel_mean            =   8.4376405490441E-04
(PID.TID 0000.0001) %MON dynstat_wvel_sd              =   1.0601279274692E-01
(PID.TID 0000.0001) %MON dynstat_wvel_del2            =   4.2635695487228E-04
(PID.TID 0000.0001) %MON dynstat_theta_max            =   4.7904700810654E+02
(PID.TID 0000.0001) %MON dynstat_theta_min            =   2.2652118319681E+02
(PID.TID 0000.0001) %MON dynstat_theta_mean           =   3.2584823130323E+02
(PID.TID 0000.0001) %MON dynstat_theta_sd             =   3.8950791019408E+01
(PID.TID 0000.0001) %MON dynstat_theta_del2           =   4.1824378351042E-03
(PID.TID 0000.0001) %MON dynstat_salt_max             =   2.1698842613118E-02
(PID.TID 0000.0001) %MON dynstat_salt_min             =   0.0000000000000E+00
(PID.TID 0000.0001) %MON dynstat_salt_mean            =   2.5284612640852E-03
(PID.TID 0000.0001) %MON dynstat_salt_sd              =   3.9502669491752E-03
(PID.TID 0000.0001) %MON dynstat_salt_del2            =   1.9370685572990E-06
(PID.TID 0000.0001) %MON advcfl_uvel_max              =   5.7001237816809E-02
(PID.TID 0000.0001) %MON advcfl_vvel_max              =   7.4677705148205E-02
(PID.TID 0000.0001) %MON advcfl_wvel_max              =   6.1557549428403E-02
(PID.TID 0000.0001) %MON advcfl_W_hf_max              =   6.2789563962768E-02
(PID.TID 0000.0001) %MON am_eta_mean                  =   1.4039615246086E+09
(PID.TID 0000.0001) %MON am_uZo_mean                  =   3.5816211231076E+11
(PID.TID 0000.0001) %MON am_tot_mean                  =   3.5956607383537E+11
(PID.TID 0000.0001) %MON pe_b_mean                    =   4.5367106317546E-01
(PID.TID 0000.0001) %MON ke_max                       =   4.4148798549818E+03
(PID.TID 0000.0001) %MON ke_mean                      =   1.6257297783948E+02
(PID.TID 0000.0001) %MON ke_vol                       =   4.9652881814644E+19
(PID.TID 0000.0001) %MON vort_r_min                   =  -2.5316391510494E-04
(PID.TID 0000.0001) %MON vort_r_max                   =   1.9409946147648E-04
(PID.TID 0000.0001) %MON vort_a_mean                  =  -1.8043394429288E-07
(PID.TID 0000.0001) %MON vort_a_sd                    =   8.8928025713938E-05
(PID.TID 0000.0001) %MON vort_p_mean                  =  -1.8280144196634E-07
(PID.TID 0000.0001) %MON vort_p_sd                    =   9.1697262261150E-05
(PID.TID 0000.0001) %MON surfExpan_theta_mean         =  -1.2768245975101E-01
(PID.TID 0000.0001) %MON surfExpan_salt_mean          =  -2.1849081199238E-05
(PID.TID 0000.0001) %MON surfExpan_Heat_mean          =   5.4736020725844E+00
(PID.TID 0000.0001) %MON En_Budget_T2PE_mean          =  -4.5604761204332E+00
(PID.TID 0000.0001) // =======================================================
(PID.TID 0000.0001) // End MONITOR dynamic field statistics
(PID.TID 0000.0001) // =======================================================
 Current Date     19930110  Current Time        62800
 cg2d: Sum(rhs),rhsMax =   9.31322574615479E-10  2.14154015318066E+05
(PID.TID 0000.0001)      cg2d_init_res =   1.62216414606036E+05
(PID.TID 0000.0001)      cg2d_iters(min,last) =      -1       7
(PID.TID 0000.0001)      cg2d_last_res =   8.40601894416635E-11
(PID.TID 0000.0001) // =======================================================
(PID.TID 0000.0001) // Begin MONITOR dynamic field statistics
(PID.TID 0000.0001) // =======================================================
(PID.TID 0000.0001) %MON time_tsnumber                =                    14
(PID.TID 0000.0001) %MON time_secondsf                =   1.6800000000000E+03
(PID.TID 0000.0001) %MON dynstat_eta_max              =   3.0147151669678E+03
(PID.TID 0000.0001) %MON dynstat_eta_min              =  -2.7168996562421E+03
(PID.TID 0000.0001) %MON dynstat_eta_mean             =   6.4268092032785E-15
(PID.TID 0000.0001) %MON dynstat_eta_sd               =   3.3933032876628E+02
(PID.TID 0000.0001) %MON dynstat_eta_del2             =   7.1714908623423E+00
(PID.TID 0000.0001) %MON dynstat_uvel_max             =   7.2311363155638E+01
(PID.TID 0000.0001) %MON dynstat_uvel_min             =  -7.6345592899704E+01
(PID.TID 0000.0001) %MON dynstat_uvel_mean            =   1.6223629626484E+00
(PID.TID 0000.0001) %MON dynstat_uvel_sd              =   1.2701522658922E+01
(PID.TID 0000.0001) %MON dynstat_uvel_del2            =   8.9359518491382E-03
(PID.TID 0000.0001) %MON dynstat_vvel_max             =   7.2755613241261E+01
(PID.TID 0000.0001) %MON dynstat_vvel_min             =  -7.4923927035258E+01
(PID.TID 0000.0001) %MON dynstat_vvel_mean            =   1.8367749685814E+00
(PID.TID 0000.0001) %MON dynstat_vvel_sd              =   1.2641163694279E+01
(PID.TID 0000.0001) %MON dynstat_vvel_del2            =   8.7759222498337E-03
(PID.TID 0000.0001) %MON dynstat_wvel_max             =   7.7864600940613E-01
(PID.TID 0000.0001) %MON dynstat_wvel_min             =  -1.2844618366623E+00
(PID.TID 0000.0001) %MON dynstat_wvel_mean            =   8.0004439656954E-04
(PID.TID 0000.0001) %MON dynstat_wvel_sd              =   1.0709447517876E-01
(PID.TID 0000.0001) %MON dynstat_wvel_del2            =   4.3047860326148E-04
(PID.TID 0000.0001) %MON dynstat_theta_max            =   4.7918213682731E+02
(PID.TID 0000.0001) %MON dynstat_theta_min            =   2.2656672826943E+02
(PID.TID 0000.0001) %MON dynstat_theta_mean           =   3.2587334677597E+02
(PID.TID 0000.0001) %MON dynstat_theta_sd             =   3.9000647933265E+01
(PID.TID 0000.0001) %MON dynstat_theta_del2           =   4.1803674410513E-03
(PID.TID 0000.0001) %MON dynstat_salt_max             =   2.1696326522228E-02
(PID.TID 0000.0001) %MON dynstat_salt_min             =   0.0000000000000E+00
(PID.TID 0000.0001) %MON dynstat_salt_mean            =   2.5271347315666E-03
(PID.TID 0000.0001) %MON dynstat_salt_sd              =   3.9472414253838E-03
(PID.TID 0000.0001) %MON dynstat_salt_del2            =   1.9363411439731E-06
(PID.TID 0000.0001) %MON advcfl_uvel_max              =   5.6817731172465E-02
(PID.TID 0000.0001) %MON advcfl_vvel_max              =   7.4651314300591E-02
(PID.TID 0000.0001) %MON advcfl_wvel_max              =   6.1654168159792E-02
(PID.TID 0000.0001) %MON advcfl_W_hf_max              =   6.3061632946554E-02
(PID.TID 0000.0001) %MON am_eta_mean                  =   1.6005643550588E+09
(PID.TID 0000.0001) %MON am_uZo_mean                  =   3.5796922301200E+11
(PID.TID 0000.0001) %MON am_tot_mean                  =   3.5956978736706E+11
(PID.TID 0000.0001) %MON pe_b_mean                    =   5.2934743149265E-01
(PID.TID 0000.0001) %MON ke_max                       =   4.4094466264912E+03
(PID.TID 0000.0001) %MON ke_mean                      =   1.6257782854489E+02
(PID.TID 0000.0001) %MON ke_vol                       =   4.9652881814645E+19
(PID.TID 0000.0001) %MON vort_r_min                   =  -2.4704558686513E-04
(PID.TID 0000.0001) %MON vort_r_max                   =   1.8932991611185E-04
(PID.TID 0000.0001) %MON vort_a_mean                  =  -1.8043394429286E-07
(PID.TID 0000.0001) %MON vort_a_sd                    =   8.8923513035212E-05
(PID.TID 0000.0001) %MON vort_p_mean                  =  -1.8280143906048E-07
(PID.TID 0000.0001) %MON vort_p_sd                    =   9.1696080720714E-05
(PID.TID 0000.0001) %MON surfExpan_theta_mean         =  -1.1751141196586E-01
(PID.TID 0000.0001) %MON surfExpan_salt_mean          =  -2.0869793202209E-05
(PID.TID 0000.0001) %MON surfExpan_Heat_mean          =   6.0209411253311E+00
(PID.TID 0000.0001) %MON En_Budget_T2PE_mean          =  -3.6199675885170E+00
(PID.TID 0000.0001) // =======================================================
(PID.TID 0000.0001) // End MONITOR dynamic field statistics
(PID.TID 0000.0001) // =======================================================
 Current Date     19930110  Current Time        63000
 cg2d: Sum(rhs),rhsMax =  -6.98491930961609E-09  2.26067052893869E+05
(PID.TID 0000.0001)      cg2d_init_res =   1.61576027625099E+05
(PID.TID 0000.0001)      cg2d_iters(min,last) =      -1       7
(PID.TID 0000.0001)      cg2d_last_res =   8.57475402694139E-11
(PID.TID 0000.0001) // =======================================================
(PID.TID 0000.0001) // Begin MONITOR dynamic field statistics
(PID.TID 0000.0001) // =======================================================
(PID.TID 0000.0001) %MON time_tsnumber                =                    15
(PID.TID 0000.0001) %MON time_secondsf                =   1.8000000000000E+03
(PID.TID 0000.0001) %MON dynstat_eta_max              =   3.1857848415349E+03
(PID.TID 0000.0001) %MON dynstat_eta_min              =  -2.9299380905580E+03
(PID.TID 0000.0001) %MON dynstat_eta_mean             =   0.0000000000000E+00
(PID.TID 0000.0001) %MON dynstat_eta_sd               =   3.6459776349924E+02
(PID.TID 0000.0001) %MON dynstat_eta_del2             =   7.2224722724461E+00
(PID.TID 0000.0001) %MON dynstat_uvel_max             =   7.2241511372413E+01
(PID.TID 0000.0001) %MON dynstat_uvel_min             =  -7.6265427592961E+01
(PID.TID 0000.0001) %MON dynstat_uvel_mean            =   1.6177786242922E+00
(PID.TID 0000.0001) %MON dynstat_uvel_sd              =   1.2702526743550E+01
(PID.TID 0000.0001) %MON dynstat_uvel_del2            =   8.9413447000477E-03
(PID.TID 0000.0001) %MON dynstat_vvel_max             =   7.2743543043143E+01
(PID.TID 0000.0001) %MON dynstat_vvel_min             =  -7.4747821196401E+01
(PID.TID 0000.0001) %MON dynstat_vvel_mean            =   1.8411546632360E+00
(PID.TID 0000.0001) %MON dynstat_vvel_sd              =   1.2640107869001E+01
(PID.TID 0000.0001) %MON dynstat_vvel_del2            =   8.7819177986363E-03
(PID.TID 0000.0001) %MON dynstat_wvel_max             =   7.8068280351366E-01
(PID.TID 0000.0001) %MON dynstat_wvel_min             =  -1.3285117207869E+00
(PID.TID 0000.0001) %MON dynstat_wvel_mean            =   7.5466222510343E-04
(PID.TID 0000.0001) %MON dynstat_wvel_sd              =   1.0826913051488E-01
(PID.TID 0000.0001) %MON dynstat_wvel_del2            =   4.3605191895678E-04
(PID.TID 0000.0001) %MON dynstat_theta_max            =   4.7931589009100E+02
(PID.TID 0000.0001) %MON dynstat_theta_min            =   2.2660920227362E+02
(PID.TID 0000.0001) %MON dynstat_theta_mean           =   3.2589846569736E+02
(PID.TID 0000.0001) %MON dynstat_theta_sd             =   3.9050929433952E+01
(PID.TID 0000.0001) %MON dynstat_theta_del2           =   4.1785939896517E-03
(PID.TID 0000.0001) %MON dynstat_salt_max             =   2.1686230349380E-02
(PID.TID 0000.0001) %MON dynstat_salt_min             =   0.0000000000000E+00
(PID.TID 0000.0001) %MON dynstat_salt_mean            =   2.5258075802311E-03
(PID.TID 0000.0001) %MON dynstat_salt_sd              =   3.9442560287382E-03
(PID.TID 0000.0001) %MON dynstat_salt_del2            =   1.9364251108680E-06
(PID.TID 0000.0001) %MON advcfl_uvel_max              =   5.6667001183198E-02
(PID.TID 0000.0001) %MON advcfl_vvel_max              =   7.4624373496378E-02
(PID.TID 0000.0001) %MON advcfl_wvel_max              =   6.3768562597770E-02
(PID.TID 0000.0001) %MON advcfl_W_hf_max              =   6.3284767370315E-02
(PID.TID 0000.0001) %MON am_eta_mean                  =   1.8089938097181E+09
(PID.TID 0000.0001) %MON am_uZo_mean                  =   3.5776520463286E+11
(PID.TID 0000.0001) %MON am_tot_mean                  =   3.5957419844258E+11
(PID.TID 0000.0001) %MON pe_b_mean                    =   6.1010346450162E-01
(PID.TID 0000.0001) %MON ke_max                       =   4.4045722785333E+03
(PID.TID 0000.0001) %MON ke_mean                      =   1.6257786287228E+02
(PID.TID 0000.0001) %MON ke_vol                       =   4.9652881814644E+19
(PID.TID 0000.0001) %MON vort_r_min                   =  -2.4087630314571E-04
(PID.TID 0000.0001) %MON vort_r_max                   =   1.8881616895278E-04
(PID.TID 0000.0001) %MON vort_a_mean                  =  -1.8043394429294E-07
(PID.TID 0000.0001) %MON vort_a_sd                    =   8.8918971860163E-05
(PID.TID 0000.0001) %MON vort_p_mean                  =  -1.8280143566799E-07
(PID.TID 0000.0001) %MON vort_p_sd                    =   9.1695081192177E-05
(PID.TID 0000.0001) %MON surfExpan_theta_mean         =  -1.0571675485280E-01
(PID.TID 0000.0001) %MON surfExpan_salt_mean          =  -1.9583678778368E-05
(PID.TID 0000.0001) %MON surfExpan_Heat_mean          =   6.6645345894610E+00
(PID.TID 0000.0001) %MON En_Budget_T2PE_mean          =  -2.6654506566009E+00
(PID.TID 0000.0001) // =======================================================
(PID.TID 0000.0001) // End MONITOR dynamic field statistics
(PID.TID 0000.0001) // =======================================================
 Computing Diagnostic #    307  TCANOPY      Counter:       8   Parms: SM      L1      
 Computing Diagnostic #     93  RSURF        Counter:      15   Parms: SM      M1      
(PID.TID 0000.0001) Did not write pickup because writePickupAtEnd = FALSE
(PID.TID 0000.0001)   Seconds in section "ALL                    [THE_MODEL_MAIN]":
(PID.TID 0000.0001)           User time:   163.59000000000000
(PID.TID 0000.0001)         System time:   2.0200000000000000
(PID.TID 0000.0001)     Wall clock time:   166.18186688423157
(PID.TID 0000.0001)          No. starts:           1
(PID.TID 0000.0001)           No. stops:           1
(PID.TID 0000.0001)   Seconds in section "INITIALISE_FIXED       [THE_MODEL_MAIN]":
(PID.TID 0000.0001)           User time:  0.41000000000000003
(PID.TID 0000.0001)         System time:  4.00000000000000008E-002
(PID.TID 0000.0001)     Wall clock time:  0.50654220581054688
(PID.TID 0000.0001)          No. starts:           1
(PID.TID 0000.0001)           No. stops:           1
(PID.TID 0000.0001)   Seconds in section "THE_MAIN_LOOP          [THE_MODEL_MAIN]":
(PID.TID 0000.0001)           User time:   163.18000000000001
(PID.TID 0000.0001)         System time:   1.9800000000000000
(PID.TID 0000.0001)     Wall clock time:   165.67528104782104
(PID.TID 0000.0001)          No. starts:           1
(PID.TID 0000.0001)           No. stops:           1
(PID.TID 0000.0001)   Seconds in section "INITIALISE_VARIA    [THE_MAIN_LOOP]":
(PID.TID 0000.0001)           User time:   1.5600000000000001
(PID.TID 0000.0001)         System time:  0.10000000000000001
(PID.TID 0000.0001)     Wall clock time:   1.7716691493988037
(PID.TID 0000.0001)          No. starts:           1
(PID.TID 0000.0001)           No. stops:           1
(PID.TID 0000.0001)   Seconds in section "GRIDALT_UPDATE  [INITIALISE_VARIA]":
(PID.TID 0000.0001)           User time:  1.00000000000000089E-002
(PID.TID 0000.0001)         System time:   0.0000000000000000
(PID.TID 0000.0001)     Wall clock time:  1.19419097900390625E-002
(PID.TID 0000.0001)          No. starts:           1
(PID.TID 0000.0001)           No. stops:           1
(PID.TID 0000.0001)   Seconds in section "MAIN LOOP           [THE_MAIN_LOOP]":
(PID.TID 0000.0001)           User time:   161.62000000000000
(PID.TID 0000.0001)         System time:   1.8799999999999999
(PID.TID 0000.0001)     Wall clock time:   163.90357995033264
(PID.TID 0000.0001)          No. starts:           1
(PID.TID 0000.0001)           No. stops:           1
(PID.TID 0000.0001)   Seconds in section "MAIN_DO_LOOP        [THE_MAIN_LOOP]":
(PID.TID 0000.0001)           User time:   161.62000000000006
(PID.TID 0000.0001)         System time:   1.8800000000000003
(PID.TID 0000.0001)     Wall clock time:   163.90343427658081
(PID.TID 0000.0001)          No. starts:          15
(PID.TID 0000.0001)           No. stops:          15
(PID.TID 0000.0001)   Seconds in section "FORWARD_STEP        [MAIN_DO_LOOP]":
(PID.TID 0000.0001)           User time:   161.62000000000006
(PID.TID 0000.0001)         System time:   1.8800000000000003
(PID.TID 0000.0001)     Wall clock time:   163.90315032005310
(PID.TID 0000.0001)          No. starts:          15
(PID.TID 0000.0001)           No. stops:          15
(PID.TID 0000.0001)   Seconds in section "DO_STATEVARS_DIAGS  [FORWARD_STEP]":
(PID.TID 0000.0001)           User time:  2.00000000000102318E-002
(PID.TID 0000.0001)         System time:   0.0000000000000000
(PID.TID 0000.0001)     Wall clock time:  2.97377109527587891E-002
(PID.TID 0000.0001)          No. starts:          45
(PID.TID 0000.0001)           No. stops:          45
(PID.TID 0000.0001)   Seconds in section "LOAD_FIELDS_DRIVER  [FORWARD_STEP]":
(PID.TID 0000.0001)           User time:   0.0000000000000000
(PID.TID 0000.0001)         System time:   0.0000000000000000
(PID.TID 0000.0001)     Wall clock time:  4.29868698120117188E-004
(PID.TID 0000.0001)          No. starts:          15
(PID.TID 0000.0001)           No. stops:          15
(PID.TID 0000.0001)   Seconds in section "EXTERNAL_FLDS_LOAD [LOAD_FLDS_DRIVER]":
(PID.TID 0000.0001)           User time:   0.0000000000000000
(PID.TID 0000.0001)         System time:   0.0000000000000000
(PID.TID 0000.0001)     Wall clock time:  1.46150588989257813E-004
(PID.TID 0000.0001)          No. starts:          15
(PID.TID 0000.0001)           No. stops:          15
(PID.TID 0000.0001)   Seconds in section "DO_ATMOSPHERIC_PHYS [FORWARD_STEP]":
(PID.TID 0000.0001)           User time:   103.03999999999996
(PID.TID 0000.0001)         System time:   1.8599999999999999
(PID.TID 0000.0001)     Wall clock time:   105.16152644157410
(PID.TID 0000.0001)          No. starts:          15
(PID.TID 0000.0001)           No. stops:          15
(PID.TID 0000.0001)   Seconds in section "FIZHI          [DO_ATMOSPHERIC_PHYS]":
(PID.TID 0000.0001)           User time:   103.03999999999996
(PID.TID 0000.0001)         System time:   1.8599999999999999
(PID.TID 0000.0001)     Wall clock time:   105.16121625900269
(PID.TID 0000.0001)          No. starts:          15
(PID.TID 0000.0001)           No. stops:          15
(PID.TID 0000.0001)   Seconds in section "DO_FIZHI          [FIZHI_WRAPPER]":
(PID.TID 0000.0001)           User time:   97.189999999999941
(PID.TID 0000.0001)         System time:   1.8500000000000001
(PID.TID 0000.0001)     Wall clock time:   99.318455696105957
(PID.TID 0000.0001)          No. starts:          15
(PID.TID 0000.0001)           No. stops:          15
(PID.TID 0000.0001)   Seconds in section "PHYS2DYN          [FIZHI_WRAPPER]":
(PID.TID 0000.0001)           User time:   2.5299999999999727
(PID.TID 0000.0001)         System time:   0.0000000000000000
(PID.TID 0000.0001)     Wall clock time:   2.5200817584991455
(PID.TID 0000.0001)          No. starts:          15
(PID.TID 0000.0001)           No. stops:          15
(PID.TID 0000.0001)   Seconds in section "ATOC              [FIZHI_WRAPPER]":
(PID.TID 0000.0001)           User time:   1.1399999999999579
(PID.TID 0000.0001)         System time:   0.0000000000000000
(PID.TID 0000.0001)     Wall clock time:   1.1344482898712158
(PID.TID 0000.0001)          No. starts:          15
(PID.TID 0000.0001)           No. stops:          15
(PID.TID 0000.0001)   Seconds in section "EXCHANGES         [FIZHI_WRAPPER]":
(PID.TID 0000.0001)           User time:  0.35999999999995680
(PID.TID 0000.0001)         System time:   0.0000000000000000
(PID.TID 0000.0001)     Wall clock time:  0.37922382354736328
(PID.TID 0000.0001)          No. starts:          15
(PID.TID 0000.0001)           No. stops:          15
(PID.TID 0000.0001)   Seconds in section "DO_OCEANIC_PHYS     [FORWARD_STEP]":
(PID.TID 0000.0001)           User time:  9.99999999999090505E-003
(PID.TID 0000.0001)         System time:   0.0000000000000000
(PID.TID 0000.0001)     Wall clock time:  4.16731834411621094E-003
(PID.TID 0000.0001)          No. starts:          15
(PID.TID 0000.0001)           No. stops:          15
(PID.TID 0000.0001)   Seconds in section "DYNAMICS            [FORWARD_STEP]":
(PID.TID 0000.0001)           User time:   13.160000000000053
(PID.TID 0000.0001)         System time:   0.0000000000000000
(PID.TID 0000.0001)     Wall clock time:   13.200299024581909
(PID.TID 0000.0001)          No. starts:          15
(PID.TID 0000.0001)           No. stops:          15
(PID.TID 0000.0001)   Seconds in section "UPDATE_R_STAR       [FORWARD_STEP]":
(PID.TID 0000.0001)           User time:  0.96999999999999886
(PID.TID 0000.0001)         System time:   0.0000000000000000
(PID.TID 0000.0001)     Wall clock time:  0.96707701683044434
(PID.TID 0000.0001)          No. starts:          15
(PID.TID 0000.0001)           No. stops:          15
(PID.TID 0000.0001)   Seconds in section "UPDATE_CG2D         [FORWARD_STEP]":
(PID.TID 0000.0001)           User time:  0.43000000000000682
(PID.TID 0000.0001)         System time:   0.0000000000000000
(PID.TID 0000.0001)     Wall clock time:  0.43624496459960938
(PID.TID 0000.0001)          No. starts:          15
(PID.TID 0000.0001)           No. stops:          15
(PID.TID 0000.0001)   Seconds in section "SOLVE_FOR_PRESSURE  [FORWARD_STEP]":
(PID.TID 0000.0001)           User time:  0.97999999999993292
(PID.TID 0000.0001)         System time:   0.0000000000000000
(PID.TID 0000.0001)     Wall clock time:  0.96929097175598145
(PID.TID 0000.0001)          No. starts:          15
(PID.TID 0000.0001)           No. stops:          15
(PID.TID 0000.0001)   Seconds in section "MOM_CORRECTION_STEP [FORWARD_STEP]":
(PID.TID 0000.0001)           User time:   5.8200000000000216
(PID.TID 0000.0001)         System time:   0.0000000000000000
(PID.TID 0000.0001)     Wall clock time:   5.8398797512054443
(PID.TID 0000.0001)          No. starts:          15
(PID.TID 0000.0001)           No. stops:          15
(PID.TID 0000.0001)   Seconds in section "SHAP_FILT_UV       [MOM_CORR_STEP]":
(PID.TID 0000.0001)           User time:   5.4300000000000068
(PID.TID 0000.0001)         System time:   0.0000000000000000
(PID.TID 0000.0001)     Wall clock time:   5.4256753921508789
(PID.TID 0000.0001)          No. starts:          15
(PID.TID 0000.0001)           No. stops:          15
(PID.TID 0000.0001)   Seconds in section "INTEGR_CONTINUITY   [FORWARD_STEP]":
(PID.TID 0000.0001)           User time:   1.3599999999999568
(PID.TID 0000.0001)         System time:   0.0000000000000000
(PID.TID 0000.0001)     Wall clock time:   1.3853099346160889
(PID.TID 0000.0001)          No. starts:          15
(PID.TID 0000.0001)           No. stops:          15
(PID.TID 0000.0001)   Seconds in section "CALC_R_STAR         [FORWARD_STEP]":
(PID.TID 0000.0001)           User time:  0.10999999999998522
(PID.TID 0000.0001)         System time:   0.0000000000000000
(PID.TID 0000.0001)     Wall clock time:  7.59737491607666016E-002
(PID.TID 0000.0001)          No. starts:          15
(PID.TID 0000.0001)           No. stops:          15
(PID.TID 0000.0001)   Seconds in section "BLOCKING_EXCHANGES  [FORWARD_STEP]":
(PID.TID 0000.0001)           User time:  0.46000000000000796
(PID.TID 0000.0001)         System time:   0.0000000000000000
(PID.TID 0000.0001)     Wall clock time:  0.47165584564208984
(PID.TID 0000.0001)          No. starts:          30
(PID.TID 0000.0001)           No. stops:          30
(PID.TID 0000.0001)   Seconds in section "THERMODYNAMICS      [FORWARD_STEP]":
(PID.TID 0000.0001)           User time:   11.169999999999987
(PID.TID 0000.0001)         System time:   0.0000000000000000
(PID.TID 0000.0001)     Wall clock time:   11.192497730255127
(PID.TID 0000.0001)          No. starts:          15
(PID.TID 0000.0001)           No. stops:          15
(PID.TID 0000.0001)   Seconds in section "TRC_CORRECTION_STEP [FORWARD_STEP]":
(PID.TID 0000.0001)           User time:   5.5800000000000409
(PID.TID 0000.0001)         System time:   0.0000000000000000
(PID.TID 0000.0001)     Wall clock time:   5.6056447029113770
(PID.TID 0000.0001)          No. starts:          15
(PID.TID 0000.0001)           No. stops:          15
(PID.TID 0000.0001)   Seconds in section "SHAP_FILT_TS       [TRC_CORR_STEP]":
(PID.TID 0000.0001)           User time:   5.3500000000000227
(PID.TID 0000.0001)         System time:   0.0000000000000000
(PID.TID 0000.0001)     Wall clock time:   5.3445301055908203
(PID.TID 0000.0001)          No. starts:          15
(PID.TID 0000.0001)           No. stops:          15
(PID.TID 0000.0001)   Seconds in section "SALT_FILL       [TRC_CORR_STEP]":
(PID.TID 0000.0001)           User time:  2.99999999999727152E-002
(PID.TID 0000.0001)         System time:   0.0000000000000000
(PID.TID 0000.0001)     Wall clock time:  4.74014282226562500E-002
(PID.TID 0000.0001)          No. starts:          15
(PID.TID 0000.0001)           No. stops:          15
(PID.TID 0000.0001)   Seconds in section "FIZHI               [FORWARD_STEP]":
(PID.TID 0000.0001)           User time:   10.079999999999956
(PID.TID 0000.0001)         System time:  1.00000000000002309E-002
(PID.TID 0000.0001)     Wall clock time:   10.098033189773560
(PID.TID 0000.0001)          No. starts:          15
(PID.TID 0000.0001)           No. stops:          15
(PID.TID 0000.0001)   Seconds in section "PHYS2DYN          [STEP_FIZHI_CORR]":
(PID.TID 0000.0001)           User time:   2.3300000000000409
(PID.TID 0000.0001)         System time:   0.0000000000000000
(PID.TID 0000.0001)     Wall clock time:   2.3301162719726563
(PID.TID 0000.0001)          No. starts:          15
(PID.TID 0000.0001)           No. stops:          15
(PID.TID 0000.0001)   Seconds in section "ATOC              [STEP_FIZHI_CORR]":
(PID.TID 0000.0001)           User time:   1.1399999999999579
(PID.TID 0000.0001)         System time:   0.0000000000000000
(PID.TID 0000.0001)     Wall clock time:   1.1340446472167969
(PID.TID 0000.0001)          No. starts:          15
(PID.TID 0000.0001)           No. stops:          15
(PID.TID 0000.0001)   Seconds in section "CTOA              [STEP_FIZHI_CORR]":
(PID.TID 0000.0001)           User time:   1.0099999999999909
(PID.TID 0000.0001)         System time:   0.0000000000000000
(PID.TID 0000.0001)     Wall clock time:  0.97444081306457520
(PID.TID 0000.0001)          No. starts:          15
(PID.TID 0000.0001)           No. stops:          15
(PID.TID 0000.0001)   Seconds in section "DYN2PHYS          [STEP_FIZHI_CORR]":
(PID.TID 0000.0001)           User time:   3.4199999999999875
(PID.TID 0000.0001)         System time:   0.0000000000000000
(PID.TID 0000.0001)     Wall clock time:   3.4405140876770020
(PID.TID 0000.0001)          No. starts:          15
(PID.TID 0000.0001)           No. stops:          15
(PID.TID 0000.0001)   Seconds in section "DO_STATEVARS_TAVE   [FORWARD_STEP]":
(PID.TID 0000.0001)           User time:   0.0000000000000000
(PID.TID 0000.0001)         System time:   0.0000000000000000
(PID.TID 0000.0001)     Wall clock time:  1.60217285156250000E-004
(PID.TID 0000.0001)          No. starts:          15
(PID.TID 0000.0001)           No. stops:          15
(PID.TID 0000.0001)   Seconds in section "MONITOR             [FORWARD_STEP]":
(PID.TID 0000.0001)           User time:   8.2700000000000102
(PID.TID 0000.0001)         System time:   0.0000000000000000
(PID.TID 0000.0001)     Wall clock time:   8.3046200275421143
(PID.TID 0000.0001)          No. starts:          15
(PID.TID 0000.0001)           No. stops:          15
(PID.TID 0000.0001)   Seconds in section "DO_THE_MODEL_IO     [FORWARD_STEP]":
(PID.TID 0000.0001)           User time:  9.99999999999090505E-003
(PID.TID 0000.0001)         System time:  9.99999999999978684E-003
(PID.TID 0000.0001)     Wall clock time:  8.05544853210449219E-003
(PID.TID 0000.0001)          No. starts:          15
(PID.TID 0000.0001)           No. stops:          15
(PID.TID 0000.0001)   Seconds in section "DO_WRITE_PICKUP     [FORWARD_STEP]":
(PID.TID 0000.0001)           User time:   0.0000000000000000
(PID.TID 0000.0001)         System time:   0.0000000000000000
(PID.TID 0000.0001)     Wall clock time:  1.64508819580078125E-004
(PID.TID 0000.0001)          No. starts:          15
(PID.TID 0000.0001)           No. stops:          15
(PID.TID 0000.0001) // ======================================================
(PID.TID 0000.0001) // Tile <-> Tile communication statistics
(PID.TID 0000.0001) // ======================================================
(PID.TID 0000.0001) // o Tile number: 000001
(PID.TID 0000.0001) //         No. X exchanges =              0
(PID.TID 0000.0001) //            Max. X spins =              0
(PID.TID 0000.0001) //            Min. X spins =     1000000000
(PID.TID 0000.0001) //          Total. X spins =              0
(PID.TID 0000.0001) //            Avg. X spins =       0.00E+00
(PID.TID 0000.0001) //         No. Y exchanges =              0
(PID.TID 0000.0001) //            Max. Y spins =              0
(PID.TID 0000.0001) //            Min. Y spins =     1000000000
(PID.TID 0000.0001) //          Total. Y spins =              0
(PID.TID 0000.0001) //            Avg. Y spins =       0.00E+00
(PID.TID 0000.0001) // o Tile number: 000002
(PID.TID 0000.0001) //         No. X exchanges =              0
(PID.TID 0000.0001) //            Max. X spins =              0
(PID.TID 0000.0001) //            Min. X spins =     1000000000
(PID.TID 0000.0001) //          Total. X spins =              0
(PID.TID 0000.0001) //            Avg. X spins =       0.00E+00
(PID.TID 0000.0001) //         No. Y exchanges =              0
(PID.TID 0000.0001) //            Max. Y spins =              0
(PID.TID 0000.0001) //            Min. Y spins =     1000000000
(PID.TID 0000.0001) //          Total. Y spins =              0
(PID.TID 0000.0001) //            Avg. Y spins =       0.00E+00
(PID.TID 0000.0001) // o Tile number: 000003
(PID.TID 0000.0001) //         No. X exchanges =              0
(PID.TID 0000.0001) //            Max. X spins =              0
(PID.TID 0000.0001) //            Min. X spins =     1000000000
(PID.TID 0000.0001) //          Total. X spins =              0
(PID.TID 0000.0001) //            Avg. X spins =       0.00E+00
(PID.TID 0000.0001) //         No. Y exchanges =              0
(PID.TID 0000.0001) //            Max. Y spins =              0
(PID.TID 0000.0001) //            Min. Y spins =     1000000000
(PID.TID 0000.0001) //          Total. Y spins =              0
(PID.TID 0000.0001) //            Avg. Y spins =       0.00E+00
(PID.TID 0000.0001) // o Tile number: 000004
(PID.TID 0000.0001) //         No. X exchanges =              0
(PID.TID 0000.0001) //            Max. X spins =              0
(PID.TID 0000.0001) //            Min. X spins =     1000000000
(PID.TID 0000.0001) //          Total. X spins =              0
(PID.TID 0000.0001) //            Avg. X spins =       0.00E+00
(PID.TID 0000.0001) //         No. Y exchanges =              0
(PID.TID 0000.0001) //            Max. Y spins =              0
(PID.TID 0000.0001) //            Min. Y spins =     1000000000
(PID.TID 0000.0001) //          Total. Y spins =              0
(PID.TID 0000.0001) //            Avg. Y spins =       0.00E+00
(PID.TID 0000.0001) // o Tile number: 000005
(PID.TID 0000.0001) //         No. X exchanges =              0
(PID.TID 0000.0001) //            Max. X spins =              0
(PID.TID 0000.0001) //            Min. X spins =     1000000000
(PID.TID 0000.0001) //          Total. X spins =              0
(PID.TID 0000.0001) //            Avg. X spins =       0.00E+00
(PID.TID 0000.0001) //         No. Y exchanges =              0
(PID.TID 0000.0001) //            Max. Y spins =              0
(PID.TID 0000.0001) //            Min. Y spins =     1000000000
(PID.TID 0000.0001) //          Total. Y spins =              0
(PID.TID 0000.0001) //            Avg. Y spins =       0.00E+00
(PID.TID 0000.0001) // o Tile number: 000006
(PID.TID 0000.0001) //         No. X exchanges =              0
(PID.TID 0000.0001) //            Max. X spins =              0
(PID.TID 0000.0001) //            Min. X spins =     1000000000
(PID.TID 0000.0001) //          Total. X spins =              0
(PID.TID 0000.0001) //            Avg. X spins =       0.00E+00
(PID.TID 0000.0001) //         No. Y exchanges =              0
(PID.TID 0000.0001) //            Max. Y spins =              0
(PID.TID 0000.0001) //            Min. Y spins =     1000000000
(PID.TID 0000.0001) //          Total. Y spins =              0
(PID.TID 0000.0001) //            Avg. Y spins =       0.00E+00
(PID.TID 0000.0001) // o Thread number: 000001
(PID.TID 0000.0001) //            No. barriers =           5470
(PID.TID 0000.0001) //      Max. barrier spins =              1
(PID.TID 0000.0001) //      Min. barrier spins =              1
(PID.TID 0000.0001) //     Total barrier spins =           5470
(PID.TID 0000.0001) //      Avg. barrier spins =       1.00E+00
PROGRAM MAIN: Execution ended Normally
