(PID.TID 0000.0001) 
(PID.TID 0000.0001) // ======================================================
(PID.TID 0000.0001) //                      MITgcm UV
(PID.TID 0000.0001) //                      =========
(PID.TID 0000.0001) // ======================================================
(PID.TID 0000.0001) // execution environment starting up...
(PID.TID 0000.0001) 
(PID.TID 0000.0001) // MITgcmUV version:  checkpoint65z
(PID.TID 0000.0001) // Build user:        jmc
(PID.TID 0000.0001) // Build host:        baudelaire
(PID.TID 0000.0001) // Build date:        Wed Oct  5 22:33:43 EDT 2016
(PID.TID 0000.0001) 
(PID.TID 0000.0001) // =======================================================
(PID.TID 0000.0001) // Execution Environment parameter file "eedata"
(PID.TID 0000.0001) // =======================================================
(PID.TID 0000.0001) ># Example "eedata" file
(PID.TID 0000.0001) ># Lines beginning "#" are comments
(PID.TID 0000.0001) ># nTx - No. threads per process in X
(PID.TID 0000.0001) ># nTy - No. threads per process in Y
(PID.TID 0000.0001) > &EEPARMS
(PID.TID 0000.0001) > nTx=1,
(PID.TID 0000.0001) > nTy=1,
(PID.TID 0000.0001) > /
(PID.TID 0000.0001) ># Note: Some systems use & as the
(PID.TID 0000.0001) ># namelist terminator. Other systems
(PID.TID 0000.0001) ># use a / character (as shown here).
(PID.TID 0000.0001) 
(PID.TID 0000.0001) // =======================================================
(PID.TID 0000.0001) // Computational Grid Specification ( see files "SIZE.h" )
(PID.TID 0000.0001) //                                  ( and "eedata"       )
(PID.TID 0000.0001) // =======================================================
(PID.TID 0000.0001)      nPx =    1 ; /* No. processes in X */
(PID.TID 0000.0001)      nPy =    1 ; /* No. processes in Y */
(PID.TID 0000.0001)      nSx =    2 ; /* No. tiles in X per process */
(PID.TID 0000.0001)      nSy =    1 ; /* No. tiles in Y per process */
(PID.TID 0000.0001)      sNx =   45 ; /* Tile size in X */
(PID.TID 0000.0001)      sNy =   40 ; /* Tile size in Y */
(PID.TID 0000.0001)      OLx =    2 ; /* Tile overlap distance in X */
(PID.TID 0000.0001)      OLy =    2 ; /* Tile overlap distance in Y */
(PID.TID 0000.0001)      nTx =    1 ; /* No. threads in X per process */
(PID.TID 0000.0001)      nTy =    1 ; /* No. threads in Y per process */
(PID.TID 0000.0001)       Nr =   15 ; /* No. levels in the vertical   */
(PID.TID 0000.0001)       Nx =   90 ; /* Total domain size in X ( = nPx*nSx*sNx ) */
(PID.TID 0000.0001)       Ny =   40 ; /* Total domain size in Y ( = nPy*nSy*sNy ) */
(PID.TID 0000.0001)   nTiles =    2 ; /* Total no. tiles per process ( = nSx*nSy ) */
(PID.TID 0000.0001)   nProcs =    1 ; /* Total no. processes ( = nPx*nPy ) */
(PID.TID 0000.0001) nThreads =    1 ; /* Total no. threads per process ( = nTx*nTy ) */
(PID.TID 0000.0001) usingMPI =    F ; /* Flag used to control whether MPI is in use */
(PID.TID 0000.0001)                   /*  note: To execute a program with MPI calls */
(PID.TID 0000.0001)                   /*  it must be launched appropriately e.g     */
(PID.TID 0000.0001)                   /*  "mpirun -np 64 ......"                    */
(PID.TID 0000.0001) useCoupler=    F ;/* Flag used to control communications with   */
(PID.TID 0000.0001)                   /*  other model components, through a coupler */
(PID.TID 0000.0001) debugMode =    F ; /* print debug msg. (sequence of S/R calls)  */
(PID.TID 0000.0001) printMapIncludesZeros=    F ; /* print zeros in Std.Output maps */
(PID.TID 0000.0001) maxLengthPrt1D=   65 /* maxLength of 1D array printed to StdOut */
(PID.TID 0000.0001) 
(PID.TID 0000.0001) // ======================================================
(PID.TID 0000.0001) // Mapping of tiles to threads
(PID.TID 0000.0001) // ======================================================
(PID.TID 0000.0001) // -o- Thread   1, tiles (   1:   2,   1:   1)
(PID.TID 0000.0001) 
(PID.TID 0000.0001) // ======================================================
(PID.TID 0000.0001) // Tile <-> Tile connectvity table
(PID.TID 0000.0001) // ======================================================
(PID.TID 0000.0001) // Tile number: 000001 (process no. = 000000)
(PID.TID 0000.0001) //        WEST: Tile = 000002, Process = 000000, Comm = put
(PID.TID 0000.0001) //                bi = 000002, bj = 000001
(PID.TID 0000.0001) //        EAST: Tile = 000002, Process = 000000, Comm = put
(PID.TID 0000.0001) //                bi = 000002, bj = 000001
(PID.TID 0000.0001) //       SOUTH: Tile = 000001, Process = 000000, Comm = put
(PID.TID 0000.0001) //                bi = 000001, bj = 000001
(PID.TID 0000.0001) //       NORTH: Tile = 000001, Process = 000000, Comm = put
(PID.TID 0000.0001) //                bi = 000001, bj = 000001
(PID.TID 0000.0001) // Tile number: 000002 (process no. = 000000)
(PID.TID 0000.0001) //        WEST: Tile = 000001, Process = 000000, Comm = put
(PID.TID 0000.0001) //                bi = 000001, bj = 000001
(PID.TID 0000.0001) //        EAST: Tile = 000001, Process = 000000, Comm = put
(PID.TID 0000.0001) //                bi = 000001, bj = 000001
(PID.TID 0000.0001) //       SOUTH: Tile = 000002, Process = 000000, Comm = put
(PID.TID 0000.0001) //                bi = 000002, bj = 000001
(PID.TID 0000.0001) //       NORTH: Tile = 000002, Process = 000000, Comm = put
(PID.TID 0000.0001) //                bi = 000002, bj = 000001
(PID.TID 0000.0001) 
(PID.TID 0000.0001)  INI_PARMS: opening model parameter file "data"
(PID.TID 0000.0001)  OPEN_COPY_DATA_FILE: opening file data
(PID.TID 0000.0001) // =======================================================
(PID.TID 0000.0001) // Parameter file "data"
(PID.TID 0000.0001) // =======================================================
(PID.TID 0000.0001) ># ====================
(PID.TID 0000.0001) ># | Model parameters |
(PID.TID 0000.0001) ># ====================
(PID.TID 0000.0001) >#
(PID.TID 0000.0001) ># Continuous equation parameters
(PID.TID 0000.0001) > &PARM01
(PID.TID 0000.0001) > tRef = 15*20.,
(PID.TID 0000.0001) > sRef = 15*35.,
(PID.TID 0000.0001) > viscAr=1.E-3,
(PID.TID 0000.0001) > viscAh=5.E5,
(PID.TID 0000.0001) > diffKhT=0.0,
(PID.TID 0000.0001) > diffKrT=3.E-5,
(PID.TID 0000.0001) > diffKhS=0.0,
(PID.TID 0000.0001) > diffKrS=3.E-5,
(PID.TID 0000.0001) > rhonil=1035.,
(PID.TID 0000.0001) > rotationPeriod=86400.,
(PID.TID 0000.0001) > gravity=9.81,
(PID.TID 0000.0001) > eosType = 'JMD95Z',
(PID.TID 0000.0001) > ivdc_kappa=100.,
(PID.TID 0000.0001) > implicitDiffusion=.TRUE.,
(PID.TID 0000.0001) > allowFreezing=.TRUE.,
(PID.TID 0000.0001) > useRealFreshWaterFlux=.TRUE.,
(PID.TID 0000.0001) > useCDscheme=.TRUE.,
(PID.TID 0000.0001) > useNHMTerms=.TRUE.,
(PID.TID 0000.0001) ># turn on looped cells
(PID.TID 0000.0001) > hFacMin=.05,
(PID.TID 0000.0001) > hFacMindr=50.,
(PID.TID 0000.0001) ># set precision of data files
(PID.TID 0000.0001) > readBinaryPrec=32,
(PID.TID 0000.0001) >#- not safe to use globalFiles in multi-processors runs
(PID.TID 0000.0001) >#globalfiles=.TRUE.
(PID.TID 0000.0001) >## usesinglecpuio=.TRUE.
(PID.TID 0000.0001) > /
(PID.TID 0000.0001) >
(PID.TID 0000.0001) ># Elliptic solver parameters
(PID.TID 0000.0001) > &PARM02
(PID.TID 0000.0001) > cg2dMaxIters=500,
(PID.TID 0000.0001) > cg2dTargetResidual=1.E-13,
(PID.TID 0000.0001) > /
(PID.TID 0000.0001) >
(PID.TID 0000.0001) ># Time stepping parameters
(PID.TID 0000.0001) > &PARM03
(PID.TID 0000.0001) > nIter0 =      0,
(PID.TID 0000.0001) > nTimeSteps = 20,
(PID.TID 0000.0001) ># 100 years of integration will yield a reasonable flow field
(PID.TID 0000.0001) ># startTime  =          0.,
(PID.TID 0000.0001) ># endTime    = 3110400000.,
(PID.TID 0000.0001) > deltaTmom = 1200.0,
(PID.TID 0000.0001) > tauCD =     321428.,
(PID.TID 0000.0001) > deltaTtracer= 43200.0,
(PID.TID 0000.0001) > deltaTClock = 43200.0,
(PID.TID 0000.0001) ># if you are using a version later than checkpoint45d on the main branch
(PID.TID 0000.0001) ># you can uncomment the following line and increase the time step
(PID.TID 0000.0001) ># deltaTtracer and deltaTClock to 172800.0 as well to speed up the
(PID.TID 0000.0001) ># asynchronous time stepping
(PID.TID 0000.0001) ># deltaTfreesurf = 172800.0,
(PID.TID 0000.0001) > abEps = 0.1,
(PID.TID 0000.0001) > pChkptFreq= 311040000.,
(PID.TID 0000.0001) > dumpFreq=   311040000.,
(PID.TID 0000.0001) > monitorFreq=1.,
(PID.TID 0000.0001) > /
(PID.TID 0000.0001) >
(PID.TID 0000.0001) ># Gridding parameters
(PID.TID 0000.0001) > &PARM04
(PID.TID 0000.0001) > usingSphericalPolarGrid=.TRUE.,
(PID.TID 0000.0001) > delR= 50., 70., 100., 140., 190.,
(PID.TID 0000.0001) >       240., 290., 340., 390., 440.,
(PID.TID 0000.0001) >       490., 540., 590., 640., 690.,
(PID.TID 0000.0001) > ygOrigin=-80.,
(PID.TID 0000.0001) > dySpacing=4.,
(PID.TID 0000.0001) > dxSpacing=4.,
(PID.TID 0000.0001) > /
(PID.TID 0000.0001) >
(PID.TID 0000.0001) ># Input datasets
(PID.TID 0000.0001) > &PARM05
(PID.TID 0000.0001) > bathyFile=      'bathymetry.bin',
(PID.TID 0000.0001) > hydrogThetaFile='lev_t.bin',
(PID.TID 0000.0001) > hydrogSaltFile= 'lev_s.bin',
(PID.TID 0000.0001) > /
(PID.TID 0000.0001) 
(PID.TID 0000.0001)  INI_PARMS ; starts to read PARM01
(PID.TID 0000.0001)  INI_PARMS ; read PARM01 : OK
(PID.TID 0000.0001) S/R INI_PARMS: No request for barotropic solver
(PID.TID 0000.0001) S/R INI_PARMS: => Use implicitFreeSurface as default
(PID.TID 0000.0001)  INI_PARMS ; starts to read PARM02
(PID.TID 0000.0001)  INI_PARMS ; read PARM02 : OK
(PID.TID 0000.0001)  INI_PARMS ; starts to read PARM03
(PID.TID 0000.0001)  INI_PARMS ; read PARM03 : OK
(PID.TID 0000.0001)  INI_PARMS ; starts to read PARM04
(PID.TID 0000.0001)  INI_PARMS ; read PARM04 : OK
(PID.TID 0000.0001)  INI_PARMS ; starts to read PARM05
(PID.TID 0000.0001)  INI_PARMS ; read PARM05 : OK
(PID.TID 0000.0001)  INI_PARMS: finished reading file "data"
(PID.TID 0000.0001)  PACKAGES_BOOT: opening data.pkg
(PID.TID 0000.0001)  OPEN_COPY_DATA_FILE: opening file data.pkg
(PID.TID 0000.0001) // =======================================================
(PID.TID 0000.0001) // Parameter file "data.pkg"
(PID.TID 0000.0001) // =======================================================
(PID.TID 0000.0001) ># Packages
(PID.TID 0000.0001) > &PACKAGES
(PID.TID 0000.0001) >  useEXF         = .TRUE.,
(PID.TID 0000.0001) >  useGrdchk      = .TRUE.,
(PID.TID 0000.0001) >  useGMRedi      = .TRUE.,
(PID.TID 0000.0001) >##  useDiagnostics = .TRUE.,
(PID.TID 0000.0001) > /
(PID.TID 0000.0001) >
(PID.TID 0000.0001) 
(PID.TID 0000.0001)  PACKAGES_BOOT: finished reading data.pkg
(PID.TID 0000.0001)  PACKAGES_BOOT: On/Off package Summary
 --------  pkgs with a standard "usePKG" On/Off switch in "data.pkg":  --------
 pkg/gmredi               compiled   and   used ( useGMRedi                = T )
 pkg/cal                  compiled   and   used ( useCAL                   = T )
 pkg/exf                  compiled   and   used ( useEXF                   = T )
 pkg/autodiff             compiled   and   used ( useAUTODIFF              = T )
 pkg/grdchk               compiled   and   used ( useGrdchk                = T )
 pkg/ctrl                 compiled   and   used ( useCTRL                  = T )
 -------- pkgs without standard "usePKG" On/Off switch in "data.pkg":  --------
 pkg/generic_advdiff      compiled   and   used ( useGAD                   = T )
 pkg/mom_common           compiled   and   used ( momStepping              = T )
 pkg/mom_vecinv           compiled but not used ( +vectorInvariantMomentum = F )
 pkg/mom_fluxform         compiled   and   used ( & not vectorInvariantMom = T )
 pkg/cd_code              compiled   and   used ( useCDscheme              = T )
 pkg/monitor              compiled   and   used ( monitorFreq > 0.         = T )
 pkg/debug                compiled but not used ( debugMode                = F )
 pkg/rw                   compiled   and   used
 pkg/mdsio                compiled   and   used
 pkg/autodiff             compiled   and   used
 pkg/cost                 compiled   and   used
(PID.TID 0000.0001)  PACKAGES_BOOT: End of package Summary
(PID.TID 0000.0001) 
(PID.TID 0000.0001) CAL_READPARMS: opening data.cal
(PID.TID 0000.0001)  OPEN_COPY_DATA_FILE: opening file data.cal
(PID.TID 0000.0001) // =======================================================
(PID.TID 0000.0001) // Parameter file "data.cal"
(PID.TID 0000.0001) // =======================================================
(PID.TID 0000.0001) >#
(PID.TID 0000.0001) ># *******************
(PID.TID 0000.0001) ># Calendar Parameters
(PID.TID 0000.0001) ># *******************
(PID.TID 0000.0001) > &CAL_NML
(PID.TID 0000.0001) > TheCalendar='gregorian',
(PID.TID 0000.0001) ># TheCalendar='model',
(PID.TID 0000.0001) > startDate_1=19920101,
(PID.TID 0000.0001) > startDate_2=000000,
(PID.TID 0000.0001) > /
(PID.TID 0000.0001) 
(PID.TID 0000.0001) CAL_READPARMS: finished reading data.cal
(PID.TID 0000.0001) EXF_READPARMS: opening data.exf
(PID.TID 0000.0001)  OPEN_COPY_DATA_FILE: opening file data.exf
(PID.TID 0000.0001) // =======================================================
(PID.TID 0000.0001) // Parameter file "data.exf"
(PID.TID 0000.0001) // =======================================================
(PID.TID 0000.0001) ># *********************
(PID.TID 0000.0001) ># External Forcing Data
(PID.TID 0000.0001) ># *********************
(PID.TID 0000.0001) > &EXF_NML_01
(PID.TID 0000.0001) > exf_iprec         = 32,
(PID.TID 0000.0001) > exf_debugLev      = 3,
(PID.TID 0000.0001) > readStressOnAgrid = .TRUE.,
(PID.TID 0000.0001) > /
(PID.TID 0000.0001) >
(PID.TID 0000.0001) ># *********************
(PID.TID 0000.0001) > &EXF_NML_02
(PID.TID 0000.0001) >#hfluxstartdate1   = 19920101,
(PID.TID 0000.0001) >#hfluxstartdate2   = 000000,
(PID.TID 0000.0001) > hfluxperiod       = -12.,
(PID.TID 0000.0001) >#
(PID.TID 0000.0001) >#sfluxstartdate1   = 19920101,
(PID.TID 0000.0001) >#sfluxstartdate2   = 000000,
(PID.TID 0000.0001) > sfluxperiod       = -12.,
(PID.TID 0000.0001) >#
(PID.TID 0000.0001) >#ustressstartdate1 = 19920101,
(PID.TID 0000.0001) >#ustressstartdate2 = 000000,
(PID.TID 0000.0001) > ustressperiod     = -12.,
(PID.TID 0000.0001) >#
(PID.TID 0000.0001) >#vstressstartdate1 = 19920101,
(PID.TID 0000.0001) >#vstressstartdate2 = 000000,
(PID.TID 0000.0001) > vstressperiod     = -12.,
(PID.TID 0000.0001) >#
(PID.TID 0000.0001) >#climsststartdate1 = 19920101,
(PID.TID 0000.0001) >#climsststartdate2 = 000000,
(PID.TID 0000.0001) > climsstperiod     = -12.,
(PID.TID 0000.0001) ># 2 months restoring timescale for temperature
(PID.TID 0000.0001) > climsstTauRelax   = 5184000.,
(PID.TID 0000.0001) >#
(PID.TID 0000.0001) >#climsssstartdate1 = 19920101,
(PID.TID 0000.0001) >#climsssstartdate2 = 000000,
(PID.TID 0000.0001) > climsssperiod     = -12.,
(PID.TID 0000.0001) ># 6 months restoring timescale for salinity
(PID.TID 0000.0001) > climsssTauRelax   = 15552000.,
(PID.TID 0000.0001) >#
(PID.TID 0000.0001) > hfluxfile    = 'ncep_qnet.bin',
(PID.TID 0000.0001) >#sfluxfile    = 'ncep_emp.bin',
(PID.TID 0000.0001) > ustressfile  = 'trenberth_taux.bin',
(PID.TID 0000.0001) > vstressfile  = 'trenberth_tauy.bin',
(PID.TID 0000.0001) > climsstfile  = 'lev_sst.bin',
(PID.TID 0000.0001) > climsssfile  = 'lev_sss.bin',
(PID.TID 0000.0001) >#
(PID.TID 0000.0001) > /
(PID.TID 0000.0001) >
(PID.TID 0000.0001) ># *********************
(PID.TID 0000.0001) > &EXF_NML_03
(PID.TID 0000.0001) > /
(PID.TID 0000.0001) >
(PID.TID 0000.0001) ># *********************
(PID.TID 0000.0001) > &EXF_NML_04
(PID.TID 0000.0001) > hflux_lon0    = 2.,
(PID.TID 0000.0001) > hflux_lon_inc = 4.,
(PID.TID 0000.0001) > hflux_lat0    = -78.,
(PID.TID 0000.0001) > hflux_lat_inc = 39*4.,
(PID.TID 0000.0001) > hflux_nlon    = 90,
(PID.TID 0000.0001) > hflux_nlat    = 40,
(PID.TID 0000.0001) >#
(PID.TID 0000.0001) > sflux_lon0    = 2.,
(PID.TID 0000.0001) > sflux_lon_inc = 4.,
(PID.TID 0000.0001) > sflux_lat0    = -78.,
(PID.TID 0000.0001) > sflux_lat_inc = 39*4.,
(PID.TID 0000.0001) > sflux_nlon    = 90,
(PID.TID 0000.0001) > sflux_nlat    = 40,
(PID.TID 0000.0001) >#
(PID.TID 0000.0001) > ustress_lon0    = 0.,
(PID.TID 0000.0001) > ustress_lon_inc = 4.,
(PID.TID 0000.0001) > ustress_lat0    = -78.,
(PID.TID 0000.0001) > ustress_lat_inc = 39*4.,
(PID.TID 0000.0001) > ustress_nlon    = 90,
(PID.TID 0000.0001) > ustress_nlat    = 40,
(PID.TID 0000.0001) >#
(PID.TID 0000.0001) > vstress_lon0    = 2.,
(PID.TID 0000.0001) > vstress_lon_inc = 4.,
(PID.TID 0000.0001) > vstress_lat0    = -80.,
(PID.TID 0000.0001) > vstress_lat_inc = 39*4.,
(PID.TID 0000.0001) > vstress_nlon    = 90,
(PID.TID 0000.0001) > vstress_nlat    = 40,
(PID.TID 0000.0001) >#
(PID.TID 0000.0001) > climsst_lon0    = 2.,
(PID.TID 0000.0001) > climsst_lon_inc = 4.,
(PID.TID 0000.0001) > climsst_lat0    = -78.,
(PID.TID 0000.0001) > climsst_lat_inc = 39*4.,
(PID.TID 0000.0001) > climsst_nlon    = 90,
(PID.TID 0000.0001) > climsst_nlat    = 40,
(PID.TID 0000.0001) >#
(PID.TID 0000.0001) > climsss_lon0    = 2.,
(PID.TID 0000.0001) > climsss_lon_inc = 4.,
(PID.TID 0000.0001) > climsss_lat0    = -78.,
(PID.TID 0000.0001) > climsss_lat_inc = 39*4.,
(PID.TID 0000.0001) > climsss_nlon    = 90,
(PID.TID 0000.0001) > climsss_nlat    = 40,
(PID.TID 0000.0001) >#
(PID.TID 0000.0001) > /
(PID.TID 0000.0001) 
(PID.TID 0000.0001) EXF_READPARMS: reading EXF_NML_01
(PID.TID 0000.0001) EXF_READPARMS: reading EXF_NML_02
(PID.TID 0000.0001) EXF_READPARMS: reading EXF_NML_03
(PID.TID 0000.0001) EXF_READPARMS: finished reading data.exf
(PID.TID 0000.0001)  GM_READPARMS: opening data.gmredi
(PID.TID 0000.0001)  OPEN_COPY_DATA_FILE: opening file data.gmredi
(PID.TID 0000.0001) // =======================================================
(PID.TID 0000.0001) // Parameter file "data.gmredi"
(PID.TID 0000.0001) // =======================================================
(PID.TID 0000.0001) ># GM+Redi package parameters:
(PID.TID 0000.0001) >
(PID.TID 0000.0001) >#-from MOM :
(PID.TID 0000.0001) ># GM_background_K: 	G & Mc.W  diffusion coefficient
(PID.TID 0000.0001) ># GM_maxSlope    :	max slope of isopycnals
(PID.TID 0000.0001) ># GM_Scrit       :	transition for scaling diffusion coefficient
(PID.TID 0000.0001) ># GM_Sd          :	half width scaling for diffusion coefficient
(PID.TID 0000.0001) ># GM_taper_scheme:	slope clipping or one of the tapering schemes
(PID.TID 0000.0001) ># GM_Kmin_horiz  :	horizontal diffusion minimum value
(PID.TID 0000.0001) >
(PID.TID 0000.0001) >#-Option parameters (needs to "define" options in GMREDI_OPTIONS.h")
(PID.TID 0000.0001) ># GM_isopycK     :	isopycnal diffusion coefficient (default=GM_background_K)
(PID.TID 0000.0001) ># GM_AdvForm     :	turn on GM Advective form       (default=Skew flux form)
(PID.TID 0000.0001) >
(PID.TID 0000.0001) > &GM_PARM01
(PID.TID 0000.0001) >  GM_background_K    = 1.e+3,
(PID.TID 0000.0001) >  GM_taper_scheme    = 'gkw91',
(PID.TID 0000.0001) >  GM_maxSlope        = 1.e-2,
(PID.TID 0000.0001) >  GM_Kmin_horiz      = 50.,
(PID.TID 0000.0001) >  GM_Scrit           = 4.e-3,
(PID.TID 0000.0001) >  GM_Sd              = 1.e-3,
(PID.TID 0000.0001) ># GM_Visbeck_alpha   = 0.,
(PID.TID 0000.0001) ># GM_Visbeck_length  = 2.e+5,
(PID.TID 0000.0001) ># GM_Visbeck_depth   = 1.e+3,
(PID.TID 0000.0001) ># GM_Visbeck_maxval_K= 2.5e+3,
(PID.TID 0000.0001) > /
(PID.TID 0000.0001) >
(PID.TID 0000.0001) >
(PID.TID 0000.0001) 
(PID.TID 0000.0001)  GM_READPARMS: finished reading data.gmredi
(PID.TID 0000.0001) AUTODIFF_READPARMS: opening data.autodiff
(PID.TID 0000.0001)  OPEN_COPY_DATA_FILE: opening file data.autodiff
(PID.TID 0000.0001) // =======================================================
(PID.TID 0000.0001) // Parameter file "data.autodiff"
(PID.TID 0000.0001) // =======================================================
(PID.TID 0000.0001) ># =========================
(PID.TID 0000.0001) ># pkg AUTODIFF parameters :
(PID.TID 0000.0001) ># =========================
(PID.TID 0000.0001) >#  inAdExact :: get an exact adjoint (no approximation) (def=.True.)
(PID.TID 0000.0001) >#
(PID.TID 0000.0001) > &AUTODIFF_PARM01
(PID.TID 0000.0001) ># inAdExact = .FALSE.,
(PID.TID 0000.0001) ># useKPPinAdMode = .FALSE.,
(PID.TID 0000.0001) ># useGMRediInAdMode = .FALSE.,
(PID.TID 0000.0001) > /
(PID.TID 0000.0001) 
(PID.TID 0000.0001) AUTODIFF_READPARMS: finished reading data.autodiff
(PID.TID 0000.0001) // ===================================
(PID.TID 0000.0001) // AUTODIFF parameters :
(PID.TID 0000.0001) // ===================================
(PID.TID 0000.0001) inAdExact = /* get an exact adjoint (no approximation) */
(PID.TID 0000.0001)                   T
(PID.TID 0000.0001)     ;
(PID.TID 0000.0001) useKPPinAdMode = /* use KPP in adjoint mode */
(PID.TID 0000.0001)                   F
(PID.TID 0000.0001)     ;
(PID.TID 0000.0001) useGMRediInAdMode = /* use GMRedi in adjoint mode */
(PID.TID 0000.0001)                   T
(PID.TID 0000.0001)     ;
(PID.TID 0000.0001) useSEAICEinAdMode = /* use SEAICE in adjoint mode */
(PID.TID 0000.0001)                   F
(PID.TID 0000.0001)     ;
(PID.TID 0000.0001) useGGL90inAdMode = /* use GGL90 in adjoint mode */
(PID.TID 0000.0001)                   F
(PID.TID 0000.0001)     ;
(PID.TID 0000.0001) useSALT_PLUMEinAdMode = /* use SALT_PLUME in adjoint mode */
(PID.TID 0000.0001)                   F
(PID.TID 0000.0001)     ;
(PID.TID 0000.0001) dumpAdVarExch = /* control adexch before dumpinp */
(PID.TID 0000.0001)                       2
(PID.TID 0000.0001)     ;
(PID.TID 0000.0001) mon_AdVarExch = /* control adexch before monitor */
(PID.TID 0000.0001)                       2
(PID.TID 0000.0001)     ;
(PID.TID 0000.0001) viscFacInAd = /* viscosity factor for adjoint */
(PID.TID 0000.0001)                 1.000000000000000E+00
(PID.TID 0000.0001)     ;
(PID.TID 0000.0001) 
(PID.TID 0000.0001) OPTIM_READPARMS: opening data.optim
(PID.TID 0000.0001)  OPEN_COPY_DATA_FILE: opening file data.optim
(PID.TID 0000.0001) // =======================================================
(PID.TID 0000.0001) // Parameter file "data.optim"
(PID.TID 0000.0001) // =======================================================
(PID.TID 0000.0001) >#
(PID.TID 0000.0001) ># ********************************
(PID.TID 0000.0001) ># Off-line optimization parameters
(PID.TID 0000.0001) ># ********************************
(PID.TID 0000.0001) > &OPTIM
(PID.TID 0000.0001) > optimcycle=0,
(PID.TID 0000.0001) > /
(PID.TID 0000.0001) 
(PID.TID 0000.0001) OPTIM_READPARMS: finished reading data.optim
(PID.TID 0000.0001) CTRL_READPARMS: opening data.ctrl
(PID.TID 0000.0001)  OPEN_COPY_DATA_FILE: opening file data.ctrl
(PID.TID 0000.0001) // =======================================================
(PID.TID 0000.0001) // Parameter file "data.ctrl"
(PID.TID 0000.0001) // =======================================================
(PID.TID 0000.0001) >#
(PID.TID 0000.0001) >#
(PID.TID 0000.0001) ># *********************
(PID.TID 0000.0001) ># ECCO controlvariables
(PID.TID 0000.0001) ># *********************
(PID.TID 0000.0001) > &CTRL_NML
(PID.TID 0000.0001) ># doSinglePrecTapelev=.TRUE.,
(PID.TID 0000.0001) >#
(PID.TID 0000.0001) > xx_hfluxstartdate1 = 19920101,
(PID.TID 0000.0001) > xx_hfluxstartdate2 = 000000,
(PID.TID 0000.0001) > xx_hfluxperiod     = 864000.0,
(PID.TID 0000.0001) >#
(PID.TID 0000.0001) > xx_sfluxstartdate1 = 19920101,
(PID.TID 0000.0001) > xx_sfluxstartdate2 = 000000,
(PID.TID 0000.0001) > xx_sfluxperiod     = 864000.0,
(PID.TID 0000.0001) >#
(PID.TID 0000.0001) > xx_tauustartdate1 = 19920101,
(PID.TID 0000.0001) > xx_tauustartdate2 = 000000,
(PID.TID 0000.0001) > xx_tauuperiod     = 864000.0,
(PID.TID 0000.0001) >#
(PID.TID 0000.0001) > xx_tauvstartdate1 = 19920101,
(PID.TID 0000.0001) > xx_tauvstartdate2 = 000000,
(PID.TID 0000.0001) > xx_tauvperiod     = 864000.0,
(PID.TID 0000.0001) >#
(PID.TID 0000.0001) > xx_atempstartdate1 = 19920101,
(PID.TID 0000.0001) > xx_atempstartdate2 = 000000,
(PID.TID 0000.0001) > xx_atempperiod     = 864000.0,
(PID.TID 0000.0001) >#
(PID.TID 0000.0001) > xx_aqhstartdate1 = 19920101,
(PID.TID 0000.0001) > xx_aqhstartdate2 = 000000,
(PID.TID 0000.0001) > xx_aqhperiod     = 864000.0,
(PID.TID 0000.0001) >#
(PID.TID 0000.0001) > xx_precipstartdate1 = 19920101,
(PID.TID 0000.0001) > xx_precipstartdate2 = 000000,
(PID.TID 0000.0001) > xx_precipperiod     = 864000.0,
(PID.TID 0000.0001) >#
(PID.TID 0000.0001) > xx_swfluxstartdate1 = 19920101,
(PID.TID 0000.0001) > xx_swfluxstartdate2 = 000000,
(PID.TID 0000.0001) > xx_swfluxperiod     = 864000.0,
(PID.TID 0000.0001) >#
(PID.TID 0000.0001) > xx_swdownstartdate1 = 19920101,
(PID.TID 0000.0001) > xx_swdownstartdate2 = 000000,
(PID.TID 0000.0001) > xx_swdownperiod     = 864000.0,
(PID.TID 0000.0001) >#
(PID.TID 0000.0001) > xx_lwfluxstartdate1 = 19920101,
(PID.TID 0000.0001) > xx_lwfluxstartdate2 = 000000,
(PID.TID 0000.0001) > xx_lwfluxperiod     = 864000.0,
(PID.TID 0000.0001) >#
(PID.TID 0000.0001) > xx_lwdownstartdate1 = 19920101,
(PID.TID 0000.0001) > xx_lwdownstartdate2 = 000000,
(PID.TID 0000.0001) > xx_lwdownperiod     = 864000.0,
(PID.TID 0000.0001) >#
(PID.TID 0000.0001) > xx_evapstartdate1 = 19920101,
(PID.TID 0000.0001) > xx_evapstartdate2 = 000000,
(PID.TID 0000.0001) > xx_evapperiod     = 864000.0,
(PID.TID 0000.0001) >#
(PID.TID 0000.0001) > xx_snowprecipstartdate1 = 19920101,
(PID.TID 0000.0001) > xx_snowprecipstartdate2 = 000000,
(PID.TID 0000.0001) > xx_snowprecipperiod     = 864000.0,
(PID.TID 0000.0001) >#
(PID.TID 0000.0001) > xx_apressurestartdate1 = 19920101,
(PID.TID 0000.0001) > xx_apressurestartdate2 = 000000,
(PID.TID 0000.0001) > xx_apressureperiod     = 864000.0,
(PID.TID 0000.0001) >#
(PID.TID 0000.0001) > xx_uwindstartdate1 = 19920101,
(PID.TID 0000.0001) > xx_uwindstartdate2 = 000000,
(PID.TID 0000.0001) > xx_uwindperiod     = 864000.0,
(PID.TID 0000.0001) >#
(PID.TID 0000.0001) > xx_vwindstartdate1 = 19920101,
(PID.TID 0000.0001) > xx_vwindstartdate2 = 000000,
(PID.TID 0000.0001) > xx_vwindperiod     = 864000.0,
(PID.TID 0000.0001) >#
(PID.TID 0000.0001) > xx_sststartdate1 = 19920101,
(PID.TID 0000.0001) > xx_sststartdate2 = 000000,
(PID.TID 0000.0001) > xx_sstperiod     = 864000.0,
(PID.TID 0000.0001) >#
(PID.TID 0000.0001) > xx_sssstartdate1 = 19920101,
(PID.TID 0000.0001) > xx_sssstartdate2 = 000000,
(PID.TID 0000.0001) > xx_sssperiod     = 864000.0,
(PID.TID 0000.0001) >#
(PID.TID 0000.0001) > /
(PID.TID 0000.0001) >#
(PID.TID 0000.0001) ># *********************
(PID.TID 0000.0001) ># names for ctrl_pack/unpack
(PID.TID 0000.0001) ># *********************
(PID.TID 0000.0001) > &CTRL_PACKNAMES
(PID.TID 0000.0001) > /
(PID.TID 0000.0001) 
(PID.TID 0000.0001) CTRL_READPARMS: finished reading data.ctrl
(PID.TID 0000.0001) COST_READPARMS: opening data.cost
(PID.TID 0000.0001)  OPEN_COPY_DATA_FILE: opening file data.cost
(PID.TID 0000.0001) // =======================================================
(PID.TID 0000.0001) // Parameter file "data.cost"
(PID.TID 0000.0001) // =======================================================
(PID.TID 0000.0001) >#
(PID.TID 0000.0001) >#
(PID.TID 0000.0001) ># ******************
(PID.TID 0000.0001) ># cost function
(PID.TID 0000.0001) ># ******************
(PID.TID 0000.0001) > &COST_NML
(PID.TID 0000.0001) >  mult_test = 1.,
(PID.TID 0000.0001) > /
(PID.TID 0000.0001) 
(PID.TID 0000.0001) COST_READPARMS: finished reading data.cost
(PID.TID 0000.0001) GRDCHK_READPARMS: opening data.grdchk
(PID.TID 0000.0001)  OPEN_COPY_DATA_FILE: opening file data.grdchk
(PID.TID 0000.0001) // =======================================================
(PID.TID 0000.0001) // Parameter file "data.grdchk"
(PID.TID 0000.0001) // =======================================================
(PID.TID 0000.0001) >
(PID.TID 0000.0001) ># *******************
(PID.TID 0000.0001) ># ECCO gradient check
(PID.TID 0000.0001) ># *******************
(PID.TID 0000.0001) > &GRDCHK_NML
(PID.TID 0000.0001) > grdchk_eps       = 1.d-4,
(PID.TID 0000.0001) ># nbeg             = 4,
(PID.TID 0000.0001) > iGloPos          = 4,
(PID.TID 0000.0001) > jGloPos          = 8,
(PID.TID 0000.0001) > kGloPos          = 1,
(PID.TID 0000.0001) > nstep            = 1,
(PID.TID 0000.0001) > nend             = 4,
(PID.TID 0000.0001) > grdchkvarindex   = 3,
(PID.TID 0000.0001) > /
(PID.TID 0000.0001) 
(PID.TID 0000.0001) GRDCHK_READPARMS: finished reading data.grdchk
(PID.TID 0000.0001) 
(PID.TID 0000.0001) // =======================================================
(PID.TID 0000.0001) // Gradient check configuration  >>> START <<<
(PID.TID 0000.0001) // =======================================================
(PID.TID 0000.0001) 
(PID.TID 0000.0001)   grdchkvarindex :                          3
(PID.TID 0000.0001)   eps:                              0.100E-03
(PID.TID 0000.0001)   First location:                           0
(PID.TID 0000.0001)   Last location:                            4
(PID.TID 0000.0001)   Increment:                                1
(PID.TID 0000.0001)   grdchkWhichProc:                          0
(PID.TID 0000.0001)   iLocTile =       1  ,    jLocTile =       1
(PID.TID 0000.0001) 
(PID.TID 0000.0001) // =======================================================
(PID.TID 0000.0001) // Gradient check configuration  >>> END <<<
(PID.TID 0000.0001) // =======================================================
(PID.TID 0000.0001) 
(PID.TID 0000.0001) SET_PARMS: done
(PID.TID 0000.0001) Enter INI_VERTICAL_GRID: setInterFDr=    T ; setCenterDr=    F
(PID.TID 0000.0001) %MON XC_max                       =   3.5800000000000E+02
(PID.TID 0000.0001) %MON XC_min                       =   2.0000000000000E+00
(PID.TID 0000.0001) %MON XC_mean                      =   1.8000000000000E+02
(PID.TID 0000.0001) %MON XC_sd                        =   1.0391663325314E+02
(PID.TID 0000.0001) %MON XG_max                       =   3.5600000000000E+02
(PID.TID 0000.0001) %MON XG_min                       =   0.0000000000000E+00
(PID.TID 0000.0001) %MON XG_mean                      =   1.7800000000000E+02
(PID.TID 0000.0001) %MON XG_sd                        =   1.0391663325314E+02
(PID.TID 0000.0001) %MON DXC_max                      =   4.4443898815675E+05
(PID.TID 0000.0001) %MON DXC_min                      =   9.2460385861875E+04
(PID.TID 0000.0001) %MON DXC_mean                     =   3.1372497618153E+05
(PID.TID 0000.0001) %MON DXC_sd                       =   1.1216447457560E+05
(PID.TID 0000.0001) %MON DXF_max                      =   4.4443898815675E+05
(PID.TID 0000.0001) %MON DXF_min                      =   9.2460385861875E+04
(PID.TID 0000.0001) %MON DXF_mean                     =   3.1372497618153E+05
(PID.TID 0000.0001) %MON DXF_sd                       =   1.1216447457560E+05
(PID.TID 0000.0001) %MON DXG_max                      =   4.4470989340816E+05
(PID.TID 0000.0001) %MON DXG_min                      =   7.7223062580781E+04
(PID.TID 0000.0001) %MON DXG_mean                     =   3.1353386340261E+05
(PID.TID 0000.0001) %MON DXG_sd                       =   1.1256651772502E+05
(PID.TID 0000.0001) %MON DXV_max                      =   4.4470989340816E+05
(PID.TID 0000.0001) %MON DXV_min                      =   7.7223062580781E+04
(PID.TID 0000.0001) %MON DXV_mean                     =   3.1353386340261E+05
(PID.TID 0000.0001) %MON DXV_sd                       =   1.1256651772502E+05
(PID.TID 0000.0001) %MON YC_max                       =   7.8000000000000E+01
(PID.TID 0000.0001) %MON YC_min                       =  -7.8000000000000E+01
(PID.TID 0000.0001) %MON YC_mean                      =   0.0000000000000E+00
(PID.TID 0000.0001) %MON YC_sd                        =   4.6173585522461E+01
(PID.TID 0000.0001) %MON YG_max                       =   7.6000000000000E+01
(PID.TID 0000.0001) %MON YG_min                       =  -8.0000000000000E+01
(PID.TID 0000.0001) %MON YG_mean                      =  -2.0000000000000E+00
(PID.TID 0000.0001) %MON YG_sd                        =   4.6173585522461E+01
(PID.TID 0000.0001) %MON DYC_max                      =   4.4470989340816E+05
(PID.TID 0000.0001) %MON DYC_min                      =   4.4470989340816E+05
(PID.TID 0000.0001) %MON DYC_mean                     =   4.4470989340817E+05
(PID.TID 0000.0001) %MON DYC_sd                       =   1.4668330550194E-08
(PID.TID 0000.0001) %MON DYF_max                      =   4.4470989340816E+05
(PID.TID 0000.0001) %MON DYF_min                      =   4.4470989340816E+05
(PID.TID 0000.0001) %MON DYF_mean                     =   4.4470989340817E+05
(PID.TID 0000.0001) %MON DYF_sd                       =   1.4668330550194E-08
(PID.TID 0000.0001) %MON DYG_max                      =   4.4470989340816E+05
(PID.TID 0000.0001) %MON DYG_min                      =   4.4470989340816E+05
(PID.TID 0000.0001) %MON DYG_mean                     =   4.4470989340817E+05
(PID.TID 0000.0001) %MON DYG_sd                       =   1.4668330550194E-08
(PID.TID 0000.0001) %MON DYU_max                      =   4.4470989340816E+05
(PID.TID 0000.0001) %MON DYU_min                      =   4.4470989340816E+05
(PID.TID 0000.0001) %MON DYU_mean                     =   4.4470989340817E+05
(PID.TID 0000.0001) %MON DYU_sd                       =   1.4668330550194E-08
(PID.TID 0000.0001) %MON RA_max                       =   1.9760627980089E+11
(PID.TID 0000.0001) %MON RA_min                       =   4.1109698667290E+10
(PID.TID 0000.0001) %MON RA_mean                      =   1.3948826965196E+11
(PID.TID 0000.0001) %MON RA_sd                        =   4.9870522472902E+10
(PID.TID 0000.0001) %MON RAW_max                      =   1.9760627980089E+11
(PID.TID 0000.0001) %MON RAW_min                      =   4.1109698667290E+10
(PID.TID 0000.0001) %MON RAW_mean                     =   1.3948826965196E+11
(PID.TID 0000.0001) %MON RAW_sd                       =   4.9870522472902E+10
(PID.TID 0000.0001) %MON RAS_max                      =   1.9772672958215E+11
(PID.TID 0000.0001) %MON RAS_min                      =   3.4334886267983E+10
(PID.TID 0000.0001) %MON RAS_mean                     =   1.3940329716694E+11
(PID.TID 0000.0001) %MON RAS_sd                       =   5.0049278732353E+10
(PID.TID 0000.0001) %MON RAZ_max                      =   1.9772672958215E+11
(PID.TID 0000.0001) %MON RAZ_min                      =   3.4334886267983E+10
(PID.TID 0000.0001) %MON RAZ_mean                     =   1.3940329716694E+11
(PID.TID 0000.0001) %MON RAZ_sd                       =   5.0049278732353E+10
(PID.TID 0000.0001) %MON AngleCS_max                  =   1.0000000000000E+00
(PID.TID 0000.0001) %MON AngleCS_min                  =   1.0000000000000E+00
(PID.TID 0000.0001) %MON AngleCS_mean                 =   1.0000000000000E+00
(PID.TID 0000.0001) %MON AngleCS_sd                   =   0.0000000000000E+00
(PID.TID 0000.0001) %MON AngleSN_max                  =   0.0000000000000E+00
(PID.TID 0000.0001) %MON AngleSN_min                  =   0.0000000000000E+00
(PID.TID 0000.0001) %MON AngleSN_mean                 =   0.0000000000000E+00
(PID.TID 0000.0001) %MON AngleSN_sd                   =   0.0000000000000E+00
(PID.TID 0000.0001) 
(PID.TID 0000.0001) // =======================================================
(PID.TID 0000.0001) // Calendar configuration >>> START <<<
(PID.TID 0000.0001) // =======================================================
(PID.TID 0000.0001) 
(PID.TID 0000.0001) modelstart = /* Start time of the model integration [s] */
(PID.TID 0000.0001)                 0.000000000000000E+00
(PID.TID 0000.0001)     ;
(PID.TID 0000.0001) modelend  = /* End time of the model integration [s] */
(PID.TID 0000.0001)                 8.640000000000000E+05
(PID.TID 0000.0001)     ;
(PID.TID 0000.0001) modelStep = /* Time interval for a model forward step [s] */
(PID.TID 0000.0001)                 4.320000000000000E+04
(PID.TID 0000.0001)     ;
(PID.TID 0000.0001) usingGregorianCalendar= /* Calendar Type: Gregorian Calendar */
(PID.TID 0000.0001)                   T
(PID.TID 0000.0001)     ;
(PID.TID 0000.0001) usingJulianCalendar = /* Calendar Type: Julian Calendar */
(PID.TID 0000.0001)                   F
(PID.TID 0000.0001)     ;
(PID.TID 0000.0001) usingNoLeapYearCal  = /* Calendar Type: without Leap Year */
(PID.TID 0000.0001)                   F
(PID.TID 0000.0001)     ;
(PID.TID 0000.0001) usingModelCalendar  = /* Calendar Type: Model Calendar */
(PID.TID 0000.0001)                   F
(PID.TID 0000.0001)     ;
(PID.TID 0000.0001) modelStartDate YYYYMMDD = /* Model start date YYYY-MM-DD */
(PID.TID 0000.0001)                19920101
(PID.TID 0000.0001)     ;
(PID.TID 0000.0001)   modelStartDate HHMMSS = /* Model start date HH-MM-SS  */
(PID.TID 0000.0001)                       0
(PID.TID 0000.0001)     ;
(PID.TID 0000.0001) modelEndDate   YYYYMMDD = /* Model end date YYYY-MM-DD */
(PID.TID 0000.0001)                19920111
(PID.TID 0000.0001)     ;
(PID.TID 0000.0001)   modelEndDate   HHMMSS = /* Model end date HH-MM-SS  */
(PID.TID 0000.0001)                       0
(PID.TID 0000.0001)     ;
(PID.TID 0000.0001) intyears = /* Number of calendar years affected by the integration */
(PID.TID 0000.0001)                       1
(PID.TID 0000.0001)     ;
(PID.TID 0000.0001) intmonths= /* Number of calendar months affected by the integration */
(PID.TID 0000.0001)                       1
(PID.TID 0000.0001)     ;
(PID.TID 0000.0001) intdays = /* Number of calendar days affected by the integration */
(PID.TID 0000.0001)                      10
(PID.TID 0000.0001)     ;
(PID.TID 0000.0001) modelIter0 = /* Base timestep number  */
(PID.TID 0000.0001)                       0
(PID.TID 0000.0001)     ;
(PID.TID 0000.0001) modelIterEnd = /* Final timestep number  */
(PID.TID 0000.0001)                      20
(PID.TID 0000.0001)     ;
(PID.TID 0000.0001) modelIntSteps= /* Number of model timesteps  */
(PID.TID 0000.0001)                      20
(PID.TID 0000.0001)     ;
(PID.TID 0000.0001) 
(PID.TID 0000.0001) // =======================================================
(PID.TID 0000.0001) // Calendar configuration  >>> END <<<
(PID.TID 0000.0001) // =======================================================
(PID.TID 0000.0001) 
(PID.TID 0000.0001) GAD_INIT_FIXED: GAD_OlMinSize=  1  0  1
(PID.TID 0000.0001) 
(PID.TID 0000.0001) // ===================================
(PID.TID 0000.0001) // GAD parameters :
(PID.TID 0000.0001) // ===================================
(PID.TID 0000.0001) tempAdvScheme =   /* Temp. Horiz.Advection scheme selector */
(PID.TID 0000.0001)                       2
(PID.TID 0000.0001)     ;
(PID.TID 0000.0001) tempVertAdvScheme =   /* Temp. Vert. Advection scheme selector */
(PID.TID 0000.0001)                       2
(PID.TID 0000.0001)     ;
(PID.TID 0000.0001) tempMultiDimAdvec =   /* use Muti-Dim Advec method for Temp */
(PID.TID 0000.0001)                   F
(PID.TID 0000.0001)     ;
(PID.TID 0000.0001) tempSOM_Advection = /* use 2nd Order Moment Advection for Temp */
(PID.TID 0000.0001)                   F
(PID.TID 0000.0001)     ;
(PID.TID 0000.0001) AdamsBashforthGt = /* apply Adams-Bashforth extrapolation on Gt */
(PID.TID 0000.0001)                   T
(PID.TID 0000.0001)     ;
(PID.TID 0000.0001) AdamsBashforth_T = /* apply Adams-Bashforth extrapolation on Temp */
(PID.TID 0000.0001)                   F
(PID.TID 0000.0001)     ;
(PID.TID 0000.0001) saltAdvScheme =   /* Salt. Horiz.advection scheme selector */
(PID.TID 0000.0001)                       2
(PID.TID 0000.0001)     ;
(PID.TID 0000.0001) saltVertAdvScheme =   /* Salt. Vert. Advection scheme selector */
(PID.TID 0000.0001)                       2
(PID.TID 0000.0001)     ;
(PID.TID 0000.0001) saltMultiDimAdvec =   /* use Muti-Dim Advec method for Salt */
(PID.TID 0000.0001)                   F
(PID.TID 0000.0001)     ;
(PID.TID 0000.0001) saltSOM_Advection = /* use 2nd Order Moment Advection for Salt */
(PID.TID 0000.0001)                   F
(PID.TID 0000.0001)     ;
(PID.TID 0000.0001) AdamsBashforthGs = /* apply Adams-Bashforth extrapolation on Gs */
(PID.TID 0000.0001)                   T
(PID.TID 0000.0001)     ;
(PID.TID 0000.0001) AdamsBashforth_S = /* apply Adams-Bashforth extrapolation on Salt */
(PID.TID 0000.0001)                   F
(PID.TID 0000.0001)     ;
(PID.TID 0000.0001) // ===================================
(PID.TID 0000.0001) 
(PID.TID 0000.0001) // =======================================================
(PID.TID 0000.0001) // External forcing (EXF) configuration >>> START <<<
(PID.TID 0000.0001) // =======================================================
(PID.TID 0000.0001) 
(PID.TID 0000.0001)  EXF general parameters:
(PID.TID 0000.0001) 
(PID.TID 0000.0001) exf_iprec = /* exf file precision */
(PID.TID 0000.0001)                      32
(PID.TID 0000.0001)     ;
(PID.TID 0000.0001) useExfYearlyFields = /* add extension _YEAR to input file names */
(PID.TID 0000.0001)                   F
(PID.TID 0000.0001)     ;
(PID.TID 0000.0001) twoDigitYear = /* use 2-digit year extension */
(PID.TID 0000.0001)                   F
(PID.TID 0000.0001)     ;
(PID.TID 0000.0001) useExfCheckRange = /* check for fields range */
(PID.TID 0000.0001)                   T
(PID.TID 0000.0001)     ;
(PID.TID 0000.0001) exf_debugLev = /* select EXF-debug printing level */
(PID.TID 0000.0001)                       3
(PID.TID 0000.0001)     ;
(PID.TID 0000.0001) exf_monFreq  = /* EXF monitor frequency [ s ] */
(PID.TID 0000.0001)                 1.000000000000000E+00
(PID.TID 0000.0001)     ;
(PID.TID 0000.0001) repeatPeriod = /* period for cycling forcing dataset [ s ] */
(PID.TID 0000.0001)                 0.000000000000000E+00
(PID.TID 0000.0001)     ;
(PID.TID 0000.0001) climTempFreeze= /* Minimum climatological temperature [deg.C] */
(PID.TID 0000.0001)                -1.900000000000000E+00
(PID.TID 0000.0001)     ;
(PID.TID 0000.0001) windStressMax = /* Maximum absolute windstress [ Pa ] */
(PID.TID 0000.0001)                 2.000000000000000E+00
(PID.TID 0000.0001)     ;
(PID.TID 0000.0001) stressIsOnCgrid = /* set u,v_stress on Arakawa C-grid */
(PID.TID 0000.0001)                   F
(PID.TID 0000.0001)     ;
(PID.TID 0000.0001) rotateStressOnAgrid = /* rotate u,v_stress on Arakawa A-grid */
(PID.TID 0000.0001)                   F
(PID.TID 0000.0001)     ;
(PID.TID 0000.0001) cen2kel = /* conversion of deg. Centigrade to Kelvin [K] */
(PID.TID 0000.0001)                 2.731500000000000E+02
(PID.TID 0000.0001)     ;
(PID.TID 0000.0001) gravity_mks= /* gravitational acceleration [m/s^2] */
(PID.TID 0000.0001)                 9.810000000000000E+00
(PID.TID 0000.0001)     ;
(PID.TID 0000.0001) atmrho =  /* mean atmospheric density [kg/m^3] */
(PID.TID 0000.0001)                 1.200000000000000E+00
(PID.TID 0000.0001)     ;
(PID.TID 0000.0001) atmcp =  /* mean atmospheric specific heat [J/kg/K] */
(PID.TID 0000.0001)                 1.005000000000000E+03
(PID.TID 0000.0001)     ;
(PID.TID 0000.0001) flamb =  /* latent heat of evaporation [J/kg] */
(PID.TID 0000.0001)                 2.500000000000000E+06
(PID.TID 0000.0001)     ;
(PID.TID 0000.0001) flami =  /* latent heat of pure-ice melting [J/kg] */
(PID.TID 0000.0001)                 3.340000000000000E+05
(PID.TID 0000.0001)     ;
(PID.TID 0000.0001) cvapor_fac = /* const. for Saturation calculation [?] */
(PID.TID 0000.0001)                 6.403800000000000E+05
(PID.TID 0000.0001)     ;
(PID.TID 0000.0001) cvapor_exp = /* const. for Saturation calculation [?] */
(PID.TID 0000.0001)                 5.107400000000000E+03
(PID.TID 0000.0001)     ;
(PID.TID 0000.0001) cvapor_fac_ice= /* const. for Saturation calculation [?] */
(PID.TID 0000.0001)                 1.163780000000000E+07
(PID.TID 0000.0001)     ;
(PID.TID 0000.0001) cvapor_exp_ice= /* const. for Saturation calculation [?] */
(PID.TID 0000.0001)                 5.897800000000000E+03
(PID.TID 0000.0001)     ;
(PID.TID 0000.0001) humid_fac = /* humidity coef. in virtual temp. [(kg/kg)^-1] */
(PID.TID 0000.0001)                 6.060000000000000E-01
(PID.TID 0000.0001)     ;
(PID.TID 0000.0001) gamma_blk = /* adiabatic lapse rate [?] */
(PID.TID 0000.0001)                 1.000000000000000E-02
(PID.TID 0000.0001)     ;
(PID.TID 0000.0001) saltsat = /* reduction of Qsat over salty water [-] */
(PID.TID 0000.0001)                 9.800000000000000E-01
(PID.TID 0000.0001)     ;
(PID.TID 0000.0001) noNegativeEvap = /* prevent negative Evaporation */
(PID.TID 0000.0001)                   F
(PID.TID 0000.0001)     ;
(PID.TID 0000.0001) sstExtrapol = /* extrapolation coeff from lev. 1 & 2 to surf [-] */
(PID.TID 0000.0001)                 0.000000000000000E+00
(PID.TID 0000.0001)     ;
(PID.TID 0000.0001) cDrag_1 = /* coef used in drag calculation [?] */
(PID.TID 0000.0001)                 2.700000000000000E-03
(PID.TID 0000.0001)     ;
(PID.TID 0000.0001) cDrag_2 = /* coef used in drag calculation [?] */
(PID.TID 0000.0001)                 1.420000000000000E-04
(PID.TID 0000.0001)     ;
(PID.TID 0000.0001) cDrag_3 = /* coef used in drag calculation [?] */
(PID.TID 0000.0001)                 7.640000000000000E-05
(PID.TID 0000.0001)     ;
(PID.TID 0000.0001) cStanton_1 = /* coef used in Stanton number calculation [?] */
(PID.TID 0000.0001)                 3.270000000000000E-02
(PID.TID 0000.0001)     ;
(PID.TID 0000.0001) cStanton_2 = /* coef used in Stanton number calculation [?] */
(PID.TID 0000.0001)                 1.800000000000000E-02
(PID.TID 0000.0001)     ;
(PID.TID 0000.0001) cDalton = /* coef used in Dalton number calculation [?] */
(PID.TID 0000.0001)                 3.460000000000000E-02
(PID.TID 0000.0001)     ;
(PID.TID 0000.0001) exf_scal_BulkCdn= /* Drag coefficient scaling factor [-] */
(PID.TID 0000.0001)                 1.000000000000000E+00
(PID.TID 0000.0001)     ;
(PID.TID 0000.0001) zolmin = /* minimum stability parameter [?] */
(PID.TID 0000.0001)                -1.000000000000000E+02
(PID.TID 0000.0001)     ;
(PID.TID 0000.0001) psim_fac = /* coef used in turbulent fluxes calculation [-] */
(PID.TID 0000.0001)                 5.000000000000000E+00
(PID.TID 0000.0001)     ;
(PID.TID 0000.0001) zref =  /* reference height [ m ] */
(PID.TID 0000.0001)                 1.000000000000000E+01
(PID.TID 0000.0001)     ;
(PID.TID 0000.0001) hu =  /* height of mean wind [ m ] */
(PID.TID 0000.0001)                 1.000000000000000E+01
(PID.TID 0000.0001)     ;
(PID.TID 0000.0001) ht =  /* height of mean temperature [ m ] */
(PID.TID 0000.0001)                 2.000000000000000E+00
(PID.TID 0000.0001)     ;
(PID.TID 0000.0001) hq =  /* height of mean spec.humidity [ m ] */
(PID.TID 0000.0001)                 2.000000000000000E+00
(PID.TID 0000.0001)     ;
(PID.TID 0000.0001) uMin = /* minimum wind speed [m/s] */
(PID.TID 0000.0001)                 5.000000000000000E-01
(PID.TID 0000.0001)     ;
(PID.TID 0000.0001) useStabilityFct_overIce= /* transfert Coeffs over sea-ice depend on stability */
(PID.TID 0000.0001)                   F
(PID.TID 0000.0001)     ;
(PID.TID 0000.0001) exf_iceCd = /* drag coefficient over sea-ice (fixed) [-] */
(PID.TID 0000.0001)                 1.630000000000000E-03
(PID.TID 0000.0001)     ;
(PID.TID 0000.0001) exf_iceCe = /* transfert coeff. over sea-ice, for Evap (fixed) [-] */
(PID.TID 0000.0001)                 1.630000000000000E-03
(PID.TID 0000.0001)     ;
(PID.TID 0000.0001) exf_iceCh = /* transfert coeff. over sea-ice, Sens.Heat.(fixed)[-] */
(PID.TID 0000.0001)                 1.630000000000000E-03
(PID.TID 0000.0001)     ;
(PID.TID 0000.0001) exf_albedo =  /* Sea-water albedo [-] */
(PID.TID 0000.0001)                 1.000000000000000E-01
(PID.TID 0000.0001)     ;
(PID.TID 0000.0001) useExfZenAlbedo = /* Sea-water albedo varies with zenith angle */
(PID.TID 0000.0001)                   F
(PID.TID 0000.0001)     ;
(PID.TID 0000.0001) select_ZenAlbedo = /* Sea-water albedo computation method */
(PID.TID 0000.0001)                       0
(PID.TID 0000.0001)     ;
(PID.TID 0000.0001) useExfZenIncoming = /* compute incoming solar radiation */
(PID.TID 0000.0001)                   F
(PID.TID 0000.0001)     ;
(PID.TID 0000.0001) ocean_emissivity = /* longwave ocean-surface emissivity [-] */
(PID.TID 0000.0001)                 9.700176366843034E-01
(PID.TID 0000.0001)     ;
(PID.TID 0000.0001) ice_emissivity = /* longwave seaice emissivity [-] */
(PID.TID 0000.0001)                 9.500000000000000E-01
(PID.TID 0000.0001)     ;
(PID.TID 0000.0001) snow_emissivity = /* longwave snow  emissivity [-] */
(PID.TID 0000.0001)                 9.500000000000000E-01
(PID.TID 0000.0001)     ;
(PID.TID 0000.0001) 
(PID.TID 0000.0001)  EXF main CPP flags:
(PID.TID 0000.0001) 
(PID.TID 0000.0001) // USE_EXF_INTERPOLATION:          NOT defined
(PID.TID 0000.0001) // ALLOW_ATM_TEMP:                 NOT defined
(PID.TID 0000.0001) // ALLOW_ATM_WIND (useAtmWind):    NOT defined
(PID.TID 0000.0001) // ALLOW_DOWNWARD_RADIATION:       NOT defined
(PID.TID 0000.0001) // ALLOW_BULKFORMULAE:             NOT defined
(PID.TID 0000.0001) 
(PID.TID 0000.0001)    Zonal wind stress forcing starts at                   0.
(PID.TID 0000.0001)    Zonal wind stress forcing period is                 -12.
(PID.TID 0000.0001)    Zonal wind stress forcing is read from file:
(PID.TID 0000.0001)    >>  trenberth_taux.bin  <<
(PID.TID 0000.0001) 
(PID.TID 0000.0001)    Meridional wind stress forcing starts at              0.
(PID.TID 0000.0001)    Meridional wind stress forcing period is            -12.
(PID.TID 0000.0001)    Meridional wind stress forcing is read from file:
(PID.TID 0000.0001)    >>  trenberth_tauy.bin  <<
(PID.TID 0000.0001) 
(PID.TID 0000.0001)    Heat flux forcing starts at                          0.
(PID.TID 0000.0001)    Heat flux forcing period is                         -12.
(PID.TID 0000.0001)    Heat flux forcing is read from file:
(PID.TID 0000.0001)    >>  ncep_qnet.bin  <<
(PID.TID 0000.0001) 
(PID.TID 0000.0001)    Salt flux forcing starts at                           0.
(PID.TID 0000.0001)    Salt flux forcing period is                         -12.
(PID.TID 0000.0001)    Salt flux forcing is read from file:
(PID.TID 0000.0001)    >>    <<
(PID.TID 0000.0001) 
(PID.TID 0000.0001)    Net shortwave flux forcing starts at                0.
(PID.TID 0000.0001)    Net shortwave flux forcing period is                0.
(PID.TID 0000.0001)    Net shortwave flux forcing is read from file:
(PID.TID 0000.0001)    >>    <<
(PID.TID 0000.0001) 
(PID.TID 0000.0001) // EXF_READ_EVAP:                  NOT defined
(PID.TID 0000.0001) 
(PID.TID 0000.0001) // ALLOW_RUNOFF:                   NOT defined
(PID.TID 0000.0001) 
(PID.TID 0000.0001)    Atmospheric pressure forcing starts at                0.
(PID.TID 0000.0001)    Atmospheric pressure forcing period is                0.
(PID.TID 0000.0001)    Atmospheric pressureforcing is read from file:
(PID.TID 0000.0001)    >>    <<
(PID.TID 0000.0001) 
(PID.TID 0000.0001) // =======================================================
(PID.TID 0000.0001) // External forcing (EXF) climatology configuration :
(PID.TID 0000.0001) // =======================================================
(PID.TID 0000.0001) 
(PID.TID 0000.0001) // ALLOW_CLIMSST_RELAXATION:           defined
(PID.TID 0000.0001) // ALLOW_CLIMSSS_RELAXATION:           defined
(PID.TID 0000.0001) 
(PID.TID 0000.0001)    Climatological SST starts at                   0.
(PID.TID 0000.0001)    Climatological SST period is                 -12.
(PID.TID 0000.0001)    Climatological SST is read from file:
(PID.TID 0000.0001)    >>  lev_sst.bin  <<
(PID.TID 0000.0001) 
(PID.TID 0000.0001)    Climatological SSS starts at                   0.
(PID.TID 0000.0001)    Climatological SSS period is                 -12.
(PID.TID 0000.0001)    Climatological SSS is read from file:
(PID.TID 0000.0001)    >>  lev_sss.bin  <<
(PID.TID 0000.0001) 
(PID.TID 0000.0001) // =======================================================
(PID.TID 0000.0001) // External forcing (EXF) configuration  >>> END <<<
(PID.TID 0000.0001) // =======================================================
(PID.TID 0000.0001) 
(PID.TID 0000.0001) ctrl-wet 1:    nvarlength =        85573
(PID.TID 0000.0001) ctrl-wet 2: surface wet C =          984
(PID.TID 0000.0001) ctrl-wet 3: surface wet W =          922
(PID.TID 0000.0001) ctrl-wet 4: surface wet S =          898
(PID.TID 0000.0001) ctrl-wet 4a:surface wet V =            0
(PID.TID 0000.0001) ctrl-wet 5: 3D wet points =        12155
(PID.TID 0000.0001) ctrl-wet 6: no recs for i =     1           1
(PID.TID 0000.0001) ctrl-wet 6: no recs for i =     2           1
(PID.TID 0000.0001) ctrl-wet 6: no recs for i =     3           3
(PID.TID 0000.0001) ctrl-wet 6: no recs for i =     4           3
(PID.TID 0000.0001) ctrl-wet 6: no recs for i =     5           3
(PID.TID 0000.0001) ctrl-wet 6: no recs for i =     6           3
(PID.TID 0000.0001) ctrl-wet 6: no recs for i =     7           0
(PID.TID 0000.0001) ctrl-wet 6: no recs for i =     8           0
(PID.TID 0000.0001) ctrl-wet 6: no recs for i =     9           0
(PID.TID 0000.0001) ctrl-wet 6: no recs for i =    10           0
(PID.TID 0000.0001) ctrl-wet 6: no recs for i =    11           0
(PID.TID 0000.0001) ctrl-wet 6: no recs for i =    12           0
(PID.TID 0000.0001) ctrl-wet 6: no recs for i =    13           0
(PID.TID 0000.0001) ctrl-wet 6: no recs for i =    14           0
(PID.TID 0000.0001) ctrl-wet 6: no recs for i =    15           0
(PID.TID 0000.0001) ctrl-wet 6: no recs for i =    16           0
(PID.TID 0000.0001) ctrl-wet 6: no recs for i =    17           0
(PID.TID 0000.0001) ctrl-wet 6: no recs for i =    18           0
(PID.TID 0000.0001) ctrl-wet 6: no recs for i =    19           0
(PID.TID 0000.0001) ctrl-wet 6: no recs for i =    20           0
(PID.TID 0000.0001) ctrl-wet 6: no recs for i =    21           0
(PID.TID 0000.0001) ctrl-wet 6: no recs for i =    22           0
(PID.TID 0000.0001) ctrl-wet 6: no recs for i =    23           0
(PID.TID 0000.0001) ctrl-wet 6: no recs for i =    24           0
(PID.TID 0000.0001) ctrl-wet 6: no recs for i =    25           0
(PID.TID 0000.0001) ctrl-wet 6: no recs for i =    26           0
(PID.TID 0000.0001) ctrl-wet 6: no recs for i =    27           0
(PID.TID 0000.0001) ctrl-wet 6: no recs for i =    28           0
(PID.TID 0000.0001) ctrl-wet 6: no recs for i =    29           0
(PID.TID 0000.0001) ctrl-wet 6: no recs for i =    30           0
(PID.TID 0000.0001) ctrl-wet 6: no recs for i =    31           0
(PID.TID 0000.0001) ctrl-wet 6: no recs for i =    32           0
(PID.TID 0000.0001) ctrl-wet 6: no recs for i =    33           0
(PID.TID 0000.0001) ctrl-wet 6: no recs for i =    34           0
(PID.TID 0000.0001) ctrl-wet 6: no recs for i =    35           0
(PID.TID 0000.0001) ctrl-wet 6: no recs for i =    36           0
(PID.TID 0000.0001) ctrl-wet 6: no recs for i =    37           0
(PID.TID 0000.0001) ctrl-wet 6: no recs for i =    38           0
(PID.TID 0000.0001) ctrl-wet 6: no recs for i =    39           0
(PID.TID 0000.0001) ctrl-wet 6: no recs for i =    40           0
(PID.TID 0000.0001) ctrl-wet 6: no recs for i =    41           0
(PID.TID 0000.0001) ctrl-wet 6: no recs for i =    42           0
(PID.TID 0000.0001) ctrl-wet 6: no recs for i =    43           0
(PID.TID 0000.0001) ctrl-wet 6: no recs for i =    44           0
(PID.TID 0000.0001) ctrl-wet 6: no recs for i =    45           0
(PID.TID 0000.0001) ctrl-wet 6: no recs for i =    46           0
(PID.TID 0000.0001) ctrl-wet 6: no recs for i =    47           0
(PID.TID 0000.0001) ctrl-wet 6: no recs for i =    48           0
(PID.TID 0000.0001) ctrl-wet 6: no recs for i =    49           0
(PID.TID 0000.0001) ctrl-wet 6: no recs for i =    50           0
(PID.TID 0000.0001) ctrl-wet 6: no recs for i =    51           0
(PID.TID 0000.0001) ctrl-wet 6: no recs for i =    52           0
(PID.TID 0000.0001) ctrl-wet 6: no recs for i =    53           0
(PID.TID 0000.0001) ctrl-wet 6: no recs for i =    54           0
(PID.TID 0000.0001) ctrl-wet 6: no recs for i =    55           0
(PID.TID 0000.0001) ctrl-wet 6: no recs for i =    56           0
(PID.TID 0000.0001) ctrl-wet 6: no recs for i =    57           0
(PID.TID 0000.0001) ctrl-wet 6: no recs for i =    58           0
(PID.TID 0000.0001) ctrl-wet 6: no recs for i =    59           0
(PID.TID 0000.0001) ctrl-wet 6: no recs for i =    60           0
(PID.TID 0000.0001) ctrl-wet 7: flux         35674
(PID.TID 0000.0001) ctrl-wet 8: atmos        24310
(PID.TID 0000.0001) ctrl-wet -------------------------------------------------
(PID.TID 0000.0001) ctrl-wet 13: global nvarlength for Nr =   15       85573
(PID.TID 0000.0001) ctrl-wet -------------------------------------------------
(PID.TID 0000.0001) ctrl-wet 14: global nWet C/S/W/V k=    1        2315        2149        2206           0
(PID.TID 0000.0001) ctrl-wet 14: global nWet C/S/W/V k=    2        2315        2149        2206           0
(PID.TID 0000.0001) ctrl-wet 14: global nWet C/S/W/V k=    3        2254        2102        2146           0
(PID.TID 0000.0001) ctrl-wet 14: global nWet C/S/W/V k=    4        2215        2058        2104           0
(PID.TID 0000.0001) ctrl-wet 14: global nWet C/S/W/V k=    5        2178        2027        2070           0
(PID.TID 0000.0001) ctrl-wet 14: global nWet C/S/W/V k=    6        2142        1987        2029           0
(PID.TID 0000.0001) ctrl-wet 14: global nWet C/S/W/V k=    7        2114        1959        2004           0
(PID.TID 0000.0001) ctrl-wet 14: global nWet C/S/W/V k=    8        2076        1918        1959           0
(PID.TID 0000.0001) ctrl-wet 14: global nWet C/S/W/V k=    9        2048        1887        1925           0
(PID.TID 0000.0001) ctrl-wet 14: global nWet C/S/W/V k=   10        1999        1831        1869           0
(PID.TID 0000.0001) ctrl-wet 14: global nWet C/S/W/V k=   11        1948        1771        1808           0
(PID.TID 0000.0001) ctrl-wet 14: global nWet C/S/W/V k=   12        1850        1653        1705           0
(PID.TID 0000.0001) ctrl-wet 14: global nWet C/S/W/V k=   13        1655        1404        1458           0
(PID.TID 0000.0001) ctrl-wet 14: global nWet C/S/W/V k=   14        1372        1118        1164           0
(PID.TID 0000.0001) ctrl-wet 14: global nWet C/S/W/V k=   15         828         623         671           0
(PID.TID 0000.0001) ctrl-wet -------------------------------------------------
(PID.TID 0000.0001) ctrl-wet -------------------------------------------------
(PID.TID 0000.0001) ctrl-wet -------------------------------------------------
(PID.TID 0000.0001) ctrl_init: no. of control variables:            6
(PID.TID 0000.0001) ctrl_init: control vector length:           85573
(PID.TID 0000.0001) 
(PID.TID 0000.0001) // =======================================================
(PID.TID 0000.0001) // control vector configuration  >>> START <<<
(PID.TID 0000.0001) // =======================================================
(PID.TID 0000.0001) 
(PID.TID 0000.0001)  Total number of ocean points per tile:
(PID.TID 0000.0001)  --------------------------------------
(PID.TID 0000.0001)  snx*sny*nr =    27000
(PID.TID 0000.0001) 
(PID.TID 0000.0001)  Number of ocean points per tile:
(PID.TID 0000.0001)  --------------------------------
(PID.TID 0000.0001)  bi,bj,#(c/s/w): 0001 0001 012155 010816 011065
(PID.TID 0000.0001)  bi,bj,#(c/s/w): 0002 0001 017154 015820 016259
(PID.TID 0000.0001) 
(PID.TID 0000.0001)  Initial state temperature contribution:
(PID.TID 0000.0001)  Control variable index:    0101
(PID.TID 0000.0001) 
(PID.TID 0000.0001)  Initial state salinity contribution:
(PID.TID 0000.0001)  Control variable index:    0102
(PID.TID 0000.0001) 
(PID.TID 0000.0001)  Heat flux contribution:
(PID.TID 0000.0001)  Control variable index:    0103
(PID.TID 0000.0001) 
(PID.TID 0000.0001)    Heat flux contribution starts at:            19920101 000000 WED.
(PID.TID 0000.0001)    Heat flux contribution period is:            00000010 000000
(PID.TID 0000.0001)    Heat flux contribution is read from file:
(PID.TID 0000.0001)    >>  xx_hfl  <<
(PID.TID 0000.0001) 
(PID.TID 0000.0001)  Salt flux contribution:
(PID.TID 0000.0001)  Control varibale index:    0104
(PID.TID 0000.0001) 
(PID.TID 0000.0001)    Salt flux contribution starts at:            19920101 000000 WED.
(PID.TID 0000.0001)    Salt flux contribution period is:            00000010 000000
(PID.TID 0000.0001)    Salt flux contribution is read from file:
(PID.TID 0000.0001)    >>  xx_sfl  <<
(PID.TID 0000.0001) 
(PID.TID 0000.0001)  Zonal wind stress contribution:
(PID.TID 0000.0001)  Control variable index:    0105
(PID.TID 0000.0001) 
(PID.TID 0000.0001)    Zonal wind stress contribution starts at:    19920101 000000 WED.
(PID.TID 0000.0001)    Zonal wind stress contribution period is:    00000010 000000
(PID.TID 0000.0001)    Zonal wind stress contribution is read from file:
(PID.TID 0000.0001)    >>  xx_tauu  <<
(PID.TID 0000.0001) 
(PID.TID 0000.0001)  Meridional wind stress contribution:
(PID.TID 0000.0001)  Control variable index:    0106
(PID.TID 0000.0001) 
(PID.TID 0000.0001)    Merid. wind stress contribution starts at:   19920101 000000 WED.
(PID.TID 0000.0001)    Merid. wind stress contribution period is:   00000010 000000
(PID.TID 0000.0001)    Merid. wind stress contribution is read from file:
(PID.TID 0000.0001)    >>  xx_tauv  <<
(PID.TID 0000.0001) 
(PID.TID 0000.0001) // =======================================================
(PID.TID 0000.0001) // control vector configuration  >>> END <<<
(PID.TID 0000.0001) // =======================================================
(PID.TID 0000.0001) 
(PID.TID 0000.0001) %MON fCori_max                    =   1.4226580169407E-04
(PID.TID 0000.0001) %MON fCori_min                    =  -1.4226580169407E-04
(PID.TID 0000.0001) %MON fCori_mean                   =   1.5961865317148E-21
(PID.TID 0000.0001) %MON fCori_sd                     =   9.6335367303779E-05
(PID.TID 0000.0001) %MON fCoriG_max                   =   1.4112379284621E-04
(PID.TID 0000.0001) %MON fCoriG_min                   =  -1.4323448157692E-04
(PID.TID 0000.0001) %MON fCoriG_mean                  =  -3.5808620394229E-06
(PID.TID 0000.0001) %MON fCoriG_sd                    =   9.6285194120965E-05
(PID.TID 0000.0001) %MON fCoriCos_max                 =   1.4535550371427E-04
(PID.TID 0000.0001) %MON fCoriCos_min                 =   3.0239529651320E-05
(PID.TID 0000.0001) %MON fCoriCos_mean                =   1.0260497651149E-04
(PID.TID 0000.0001) %MON fCoriCos_sd                  =   3.6683828681187E-05
(PID.TID 0000.0001) INI_CG2D: CG2D normalisation factor =  6.5682677425711703E-05
(PID.TID 0000.0001) 
(PID.TID 0000.0001) // =======================================================
(PID.TID 0000.0001) // Model configuration
(PID.TID 0000.0001) // =======================================================
(PID.TID 0000.0001) //
(PID.TID 0000.0001) // "Physical" paramters ( PARM01 in namelist )
(PID.TID 0000.0001) //
(PID.TID 0000.0001) buoyancyRelation = /* Type of relation to get Buoyancy */
(PID.TID 0000.0001)               'OCEANIC'
(PID.TID 0000.0001)     ;
(PID.TID 0000.0001) fluidIsAir   =  /* fluid major constituent is Air */
(PID.TID 0000.0001)                   F
(PID.TID 0000.0001)     ;
(PID.TID 0000.0001) fluidIsWater =  /* fluid major constituent is Water */
(PID.TID 0000.0001)                   T
(PID.TID 0000.0001)     ;
(PID.TID 0000.0001) usingPCoords =  /* use p (or p*) vertical coordinate */
(PID.TID 0000.0001)                   F
(PID.TID 0000.0001)     ;
(PID.TID 0000.0001) usingZCoords =  /* use z (or z*) vertical coordinate */
(PID.TID 0000.0001)                   T
(PID.TID 0000.0001)     ;
(PID.TID 0000.0001) tRef =   /* Reference temperature profile ( oC or K ) */
(PID.TID 0000.0001)    15 @  2.000000000000000E+01              /* K =  1: 15 */
(PID.TID 0000.0001)     ;
(PID.TID 0000.0001) sRef =   /* Reference salinity profile ( psu ) */
(PID.TID 0000.0001)    15 @  3.500000000000000E+01              /* K =  1: 15 */
(PID.TID 0000.0001)     ;
(PID.TID 0000.0001) useStrainTensionVisc= /* Use StrainTension Form of Viscous Operator */
(PID.TID 0000.0001)                   F
(PID.TID 0000.0001)     ;
(PID.TID 0000.0001) useVariableVisc = /* Use variable horizontal viscosity */
(PID.TID 0000.0001)                   F
(PID.TID 0000.0001)     ;
(PID.TID 0000.0001) useHarmonicVisc = /* Use harmonic horizontal viscosity */
(PID.TID 0000.0001)                   T
(PID.TID 0000.0001)     ;
(PID.TID 0000.0001) useBiharmonicVisc= /* Use biharmonic horiz.  viscosity */
(PID.TID 0000.0001)                   F
(PID.TID 0000.0001)     ;
(PID.TID 0000.0001) useSmag3D = /* Use isotropic 3-D Smagorinsky viscosity */
(PID.TID 0000.0001)                   F
(PID.TID 0000.0001)     ;
(PID.TID 0000.0001) viscAh  =   /* Lateral harmonic viscosity ( m^2/s ) */
(PID.TID 0000.0001)                 5.000000000000000E+05
(PID.TID 0000.0001)     ;
(PID.TID 0000.0001) viscA4  =   /* Lateral biharmonic viscosity ( m^4/s ) */
(PID.TID 0000.0001)                 0.000000000000000E+00
(PID.TID 0000.0001)     ;
(PID.TID 0000.0001) no_slip_sides =  /* Viscous BCs: No-slip sides */
(PID.TID 0000.0001)                   T
(PID.TID 0000.0001)     ;
(PID.TID 0000.0001) sideDragFactor = /* side-drag scaling factor (non-dim) */
(PID.TID 0000.0001)                 2.000000000000000E+00
(PID.TID 0000.0001)     ;
(PID.TID 0000.0001) viscArNr = /* vertical profile of vertical viscosity ( m^2/s )*/
(PID.TID 0000.0001)    15 @  1.000000000000000E-03              /* K =  1: 15 */
(PID.TID 0000.0001)     ;
(PID.TID 0000.0001) no_slip_bottom =  /* Viscous BCs: No-slip bottom */
(PID.TID 0000.0001)                   T
(PID.TID 0000.0001)     ;
(PID.TID 0000.0001) bottomVisc_pCell = /* Partial-cell in bottom Visc. BC */
(PID.TID 0000.0001)                   F
(PID.TID 0000.0001)     ;
(PID.TID 0000.0001) bottomDragLinear = /* linear bottom-drag coefficient ( m/s ) */
(PID.TID 0000.0001)                 0.000000000000000E+00
(PID.TID 0000.0001)     ;
(PID.TID 0000.0001) bottomDragQuadratic = /* quadratic bottom-drag coefficient (-) */
(PID.TID 0000.0001)                 0.000000000000000E+00
(PID.TID 0000.0001)     ;
(PID.TID 0000.0001) selectBotDragQuadr = /* select quadratic bottom drag options */
(PID.TID 0000.0001)                      -1
(PID.TID 0000.0001)     ;
(PID.TID 0000.0001) diffKhT =   /* Laplacian diffusion of heat laterally ( m^2/s ) */
(PID.TID 0000.0001)                 0.000000000000000E+00
(PID.TID 0000.0001)     ;
(PID.TID 0000.0001) diffK4T =   /* Biharmonic diffusion of heat laterally ( m^4/s ) */
(PID.TID 0000.0001)                 0.000000000000000E+00
(PID.TID 0000.0001)     ;
(PID.TID 0000.0001) diffKhS =   /* Laplacian diffusion of salt laterally ( m^2/s ) */
(PID.TID 0000.0001)                 0.000000000000000E+00
(PID.TID 0000.0001)     ;
(PID.TID 0000.0001) diffK4S =   /* Biharmonic diffusion of salt laterally ( m^4/s ) */
(PID.TID 0000.0001)                 0.000000000000000E+00
(PID.TID 0000.0001)     ;
(PID.TID 0000.0001) diffKrNrT = /* vertical profile of vertical diffusion of Temp ( m^2/s )*/
(PID.TID 0000.0001)    15 @  3.000000000000000E-05              /* K =  1: 15 */
(PID.TID 0000.0001)     ;
(PID.TID 0000.0001) diffKrNrS = /* vertical profile of vertical diffusion of Salt ( m^2/s )*/
(PID.TID 0000.0001)    15 @  3.000000000000000E-05              /* K =  1: 15 */
(PID.TID 0000.0001)     ;
(PID.TID 0000.0001) diffKrBL79surf = /* Surface diffusion for Bryan and Lewis 79 ( m^2/s ) */
(PID.TID 0000.0001)                 0.000000000000000E+00
(PID.TID 0000.0001)     ;
(PID.TID 0000.0001) diffKrBL79deep = /* Deep diffusion for Bryan and Lewis 1979 ( m^2/s ) */
(PID.TID 0000.0001)                 0.000000000000000E+00
(PID.TID 0000.0001)     ;
(PID.TID 0000.0001) diffKrBL79scl = /* Depth scale for Bryan and Lewis 1979 ( m ) */
(PID.TID 0000.0001)                 2.000000000000000E+02
(PID.TID 0000.0001)     ;
(PID.TID 0000.0001) diffKrBL79Ho = /* Turning depth for Bryan and Lewis 1979 ( m ) */
(PID.TID 0000.0001)                -2.000000000000000E+03
(PID.TID 0000.0001)     ;
(PID.TID 0000.0001) ivdc_kappa = /* Implicit Vertical Diffusivity for Convection ( m^2/s) */
(PID.TID 0000.0001)                 1.000000000000000E+02
(PID.TID 0000.0001)     ;
(PID.TID 0000.0001) hMixCriteria=  /* Criteria for mixed-layer diagnostic */
(PID.TID 0000.0001)                -8.000000000000000E-01
(PID.TID 0000.0001)     ;
(PID.TID 0000.0001) dRhoSmall =  /* Parameter for mixed-layer diagnostic */
(PID.TID 0000.0001)                 1.000000000000000E-06
(PID.TID 0000.0001)     ;
(PID.TID 0000.0001) hMixSmooth=  /* Smoothing parameter for mixed-layer diagnostic */
(PID.TID 0000.0001)                 0.000000000000000E+00
(PID.TID 0000.0001)     ;
(PID.TID 0000.0001) eosType =  /* Type of Equation of State */
(PID.TID 0000.0001)               'JMD95Z'
(PID.TID 0000.0001)     ;
(PID.TID 0000.0001) selectP_inEOS_Zc = /* select pressure to use in EOS (0,1,2,3) */
(PID.TID 0000.0001)                       0
(PID.TID 0000.0001)     0= -g*rhoConst*z ; 1= pRef (from tRef,sRef); 2= Hyd P ; 3= Hyd+NH P
(PID.TID 0000.0001)     ;
(PID.TID 0000.0001) HeatCapacity_Cp =  /* Specific heat capacity ( J/kg/K ) */
(PID.TID 0000.0001)                 3.994000000000000E+03
(PID.TID 0000.0001)     ;
(PID.TID 0000.0001) celsius2K = /* 0 degree Celsius converted to Kelvin ( K ) */
(PID.TID 0000.0001)                 2.731500000000000E+02
(PID.TID 0000.0001)     ;
(PID.TID 0000.0001) rhoConst  = /* Reference density (Boussinesq)  ( kg/m^3 ) */
(PID.TID 0000.0001)                 1.035000000000000E+03
(PID.TID 0000.0001)     ;
(PID.TID 0000.0001) rhoFacC = /* normalized Reference density @ cell-Center (-) */
(PID.TID 0000.0001)    15 @  1.000000000000000E+00              /* K =  1: 15 */
(PID.TID 0000.0001)     ;
(PID.TID 0000.0001) rhoFacF = /* normalized Reference density @ W-Interface (-) */
(PID.TID 0000.0001)    16 @  1.000000000000000E+00              /* K =  1: 16 */
(PID.TID 0000.0001)     ;
(PID.TID 0000.0001) rhoConstFresh = /* Fresh-water reference density ( kg/m^3 ) */
(PID.TID 0000.0001)                 1.035000000000000E+03
(PID.TID 0000.0001)     ;
(PID.TID 0000.0001) gravity =   /* Gravitational acceleration ( m/s^2 ) */
(PID.TID 0000.0001)                 9.810000000000000E+00
(PID.TID 0000.0001)     ;
(PID.TID 0000.0001) gBaro =   /* Barotropic gravity ( m/s^2 ) */
(PID.TID 0000.0001)                 9.810000000000000E+00
(PID.TID 0000.0001)     ;
(PID.TID 0000.0001) gravFacC = /* gravity factor (vs surf.) @ cell-Center (-) */
(PID.TID 0000.0001)    15 @  1.000000000000000E+00              /* K =  1: 15 */
(PID.TID 0000.0001)     ;
(PID.TID 0000.0001) gravFacF = /* gravity factor (vs surf.) @ W-Interface (-) */
(PID.TID 0000.0001)    16 @  1.000000000000000E+00              /* K =  1: 16 */
(PID.TID 0000.0001)     ;
(PID.TID 0000.0001) rotationPeriod =   /* Rotation Period ( s ) */
(PID.TID 0000.0001)                 8.640000000000000E+04
(PID.TID 0000.0001)     ;
(PID.TID 0000.0001) omega =   /* Angular velocity ( rad/s ) */
(PID.TID 0000.0001)                 7.272205216643040E-05
(PID.TID 0000.0001)     ;
(PID.TID 0000.0001) f0 =   /* Reference coriolis parameter ( 1/s ) */
(PID.TID 0000.0001)                 1.000000000000000E-04
(PID.TID 0000.0001)     ;
(PID.TID 0000.0001) beta =   /* Beta ( 1/(m.s) ) */
(PID.TID 0000.0001)                 9.999999999999999E-12
(PID.TID 0000.0001)     ;
(PID.TID 0000.0001) fPrime =   /* Second coriolis parameter ( 1/s ) */
(PID.TID 0000.0001)                 0.000000000000000E+00
(PID.TID 0000.0001)     ;
(PID.TID 0000.0001) rigidLid =   /* Rigid lid on/off flag */
(PID.TID 0000.0001)                   F
(PID.TID 0000.0001)     ;
(PID.TID 0000.0001) implicitFreeSurface =   /* Implicit free surface on/off flag */
(PID.TID 0000.0001)                   T
(PID.TID 0000.0001)     ;
(PID.TID 0000.0001) freeSurfFac =   /* Implicit free surface factor */
(PID.TID 0000.0001)                 1.000000000000000E+00
(PID.TID 0000.0001)     ;
(PID.TID 0000.0001) implicSurfPress =  /* Surface Pressure implicit factor (0-1)*/
(PID.TID 0000.0001)                 1.000000000000000E+00
(PID.TID 0000.0001)     ;
(PID.TID 0000.0001) implicDiv2Dflow =  /* Barot. Flow Div. implicit factor (0-1)*/
(PID.TID 0000.0001)                 1.000000000000000E+00
(PID.TID 0000.0001)     ;
(PID.TID 0000.0001) uniformLin_PhiSurf = /* use uniform Bo_surf on/off flag*/
(PID.TID 0000.0001)                   T
(PID.TID 0000.0001)     ;
(PID.TID 0000.0001) uniformFreeSurfLev = /* free-surface level-index is uniform */
(PID.TID 0000.0001)                   T
(PID.TID 0000.0001)     ;
(PID.TID 0000.0001) hFacMin =   /* minimum partial cell factor (hFac) */
(PID.TID 0000.0001)                 5.000000000000000E-02
(PID.TID 0000.0001)     ;
(PID.TID 0000.0001) hFacMinDr = /* minimum partial cell thickness ( m) */
(PID.TID 0000.0001)                 5.000000000000000E+01
(PID.TID 0000.0001)     ;
(PID.TID 0000.0001) exactConserv =  /* Exact Volume Conservation on/off flag*/
(PID.TID 0000.0001)                   F
(PID.TID 0000.0001)     ;
(PID.TID 0000.0001) linFSConserveTr = /* Tracer correction for Lin Free Surface on/off flag*/
(PID.TID 0000.0001)                   F
(PID.TID 0000.0001)     ;
(PID.TID 0000.0001) nonlinFreeSurf = /* Non-linear Free Surf. options (-1,0,1,2,3)*/
(PID.TID 0000.0001)                       0
(PID.TID 0000.0001)      -1,0= Off ; 1,2,3= On, 2=+rescale gU,gV, 3=+update cg2d solv.
(PID.TID 0000.0001)     ;
(PID.TID 0000.0001) hFacInf =   /* lower threshold for hFac (nonlinFreeSurf only)*/
(PID.TID 0000.0001)                 2.000000000000000E-01
(PID.TID 0000.0001)     ;
(PID.TID 0000.0001) hFacSup =   /* upper threshold for hFac (nonlinFreeSurf only)*/
(PID.TID 0000.0001)                 2.000000000000000E+00
(PID.TID 0000.0001)     ;
(PID.TID 0000.0001) select_rStar = /* r* Vertical coord. options (=0 r coord.; >0 uses r*)*/
(PID.TID 0000.0001)                       0
(PID.TID 0000.0001)     ;
(PID.TID 0000.0001) useRealFreshWaterFlux = /* Real Fresh Water Flux on/off flag*/
(PID.TID 0000.0001)                   T
(PID.TID 0000.0001)     ;
(PID.TID 0000.0001) temp_EvPrRn = /* Temp. of Evap/Prec/R (UNSET=use local T)(oC)*/
(PID.TID 0000.0001)                 1.234567000000000E+05
(PID.TID 0000.0001)     ;
(PID.TID 0000.0001) salt_EvPrRn = /* Salin. of Evap/Prec/R (UNSET=use local S)(psu)*/
(PID.TID 0000.0001)                 0.000000000000000E+00
(PID.TID 0000.0001)     ;
(PID.TID 0000.0001) selectAddFluid = /* option for mass source/sink of fluid (=0: off) */
(PID.TID 0000.0001)                       0
(PID.TID 0000.0001)     ;
(PID.TID 0000.0001) temp_addMass = /* Temp. of addMass array (UNSET=use local T)(oC)*/
(PID.TID 0000.0001)                 1.234567000000000E+05
(PID.TID 0000.0001)     ;
(PID.TID 0000.0001) salt_addMass = /* Salin. of addMass array (UNSET=use local S)(psu)*/
(PID.TID 0000.0001)                 0.000000000000000E+00
(PID.TID 0000.0001)     ;
(PID.TID 0000.0001) convertFW2Salt = /* convert F.W. Flux to Salt Flux (-1=use local S)(psu)*/
(PID.TID 0000.0001)                -1.000000000000000E+00
(PID.TID 0000.0001)     ;
(PID.TID 0000.0001) use3Dsolver = /* use 3-D pressure solver on/off flag */
(PID.TID 0000.0001)                   F
(PID.TID 0000.0001)     ;
(PID.TID 0000.0001) nonHydrostatic =  /* Non-Hydrostatic on/off flag */
(PID.TID 0000.0001)                   F
(PID.TID 0000.0001)     ;
(PID.TID 0000.0001) nh_Am2 = /* Non-Hydrostatic terms scaling factor */
(PID.TID 0000.0001)                 1.000000000000000E+00
(PID.TID 0000.0001)     ;
(PID.TID 0000.0001) implicitNHPress = /* Non-Hyd Pressure implicit factor (0-1)*/
(PID.TID 0000.0001)                 1.000000000000000E+00
(PID.TID 0000.0001)     ;
(PID.TID 0000.0001) selectNHfreeSurf = /* Non-Hyd (free-)Surface option */
(PID.TID 0000.0001)                       0
(PID.TID 0000.0001)     ;
(PID.TID 0000.0001) quasiHydrostatic = /* Quasi-Hydrostatic on/off flag */
(PID.TID 0000.0001)                   F
(PID.TID 0000.0001)     ;
(PID.TID 0000.0001) calc_wVelocity = /* vertical velocity calculation on/off flag */
(PID.TID 0000.0001)                   T
(PID.TID 0000.0001)     ;
(PID.TID 0000.0001) momStepping =  /* Momentum equation on/off flag */
(PID.TID 0000.0001)                   T
(PID.TID 0000.0001)     ;
(PID.TID 0000.0001) vectorInvariantMomentum= /* Vector-Invariant Momentum on/off */
(PID.TID 0000.0001)                   F
(PID.TID 0000.0001)     ;
(PID.TID 0000.0001) momAdvection =  /* Momentum advection on/off flag */
(PID.TID 0000.0001)                   T
(PID.TID 0000.0001)     ;
(PID.TID 0000.0001) momViscosity =  /* Momentum viscosity on/off flag */
(PID.TID 0000.0001)                   T
(PID.TID 0000.0001)     ;
(PID.TID 0000.0001) momImplVertAdv= /* Momentum implicit vert. advection on/off*/
(PID.TID 0000.0001)                   F
(PID.TID 0000.0001)     ;
(PID.TID 0000.0001) implicitViscosity = /* Implicit viscosity on/off flag */
(PID.TID 0000.0001)                   F
(PID.TID 0000.0001)     ;
(PID.TID 0000.0001) implBottomFriction= /* Implicit bottom friction on/off flag */
(PID.TID 0000.0001)                   F
(PID.TID 0000.0001)     ;
(PID.TID 0000.0001) metricTerms =  /* metric-Terms on/off flag */
(PID.TID 0000.0001)                   T
(PID.TID 0000.0001)     ;
(PID.TID 0000.0001) useNHMTerms = /* Non-Hydrostatic Metric-Terms on/off */
(PID.TID 0000.0001)                   T
(PID.TID 0000.0001)     ;
(PID.TID 0000.0001) selectCoriMap = /* Coriolis Map options (0,1,2,3)*/
(PID.TID 0000.0001)                       2
(PID.TID 0000.0001)     0= f-Plane ; 1= Beta-Plane ; 2= Spherical ; 3= read from file
(PID.TID 0000.0001)     ;
(PID.TID 0000.0001) use3dCoriolis = /* 3-D Coriolis on/off flag */
(PID.TID 0000.0001)                   F
(PID.TID 0000.0001)     ;
(PID.TID 0000.0001) useCoriolis =  /* Coriolis on/off flag */
(PID.TID 0000.0001)                   T
(PID.TID 0000.0001)     ;
(PID.TID 0000.0001) useCDscheme =  /* CD scheme on/off flag */
(PID.TID 0000.0001)                   T
(PID.TID 0000.0001)     ;
(PID.TID 0000.0001) useEnergyConservingCoriolis= /* Flx-Form Coriolis scheme flag */
(PID.TID 0000.0001)                   F
(PID.TID 0000.0001)     ;
(PID.TID 0000.0001) useJamartWetPoints= /* Coriolis WetPoints method flag */
(PID.TID 0000.0001)                   F
(PID.TID 0000.0001)     ;
(PID.TID 0000.0001) useJamartMomAdv= /* V.I Non-linear terms Jamart flag */
(PID.TID 0000.0001)                   F
(PID.TID 0000.0001)     ;
(PID.TID 0000.0001) useAbsVorticity= /* V.I Works with f+zeta in Coriolis */
(PID.TID 0000.0001)                   F
(PID.TID 0000.0001)     ;
(PID.TID 0000.0001) selectVortScheme= /* V.I Scheme selector for Vorticity-Term */
(PID.TID 0000.0001)               123456789
(PID.TID 0000.0001)    = 0 : enstrophy (Shallow-Water Eq.) conserving scheme by Sadourny, JAS 75
(PID.TID 0000.0001)    = 1 : same as 0 with modified hFac
(PID.TID 0000.0001)    = 2 : energy conserving scheme (used by Sadourny in JAS 75 paper)
(PID.TID 0000.0001)    = 3 : energy (general) and enstrophy (2D, nonDiv.) conserving scheme
(PID.TID 0000.0001)          from Sadourny (Burridge & Haseler, ECMWF Rep.4, 1977)
(PID.TID 0000.0001)     ;
(PID.TID 0000.0001) upwindVorticity= /* V.I Upwind bias vorticity flag */
(PID.TID 0000.0001)                   F
(PID.TID 0000.0001)     ;
(PID.TID 0000.0001) highOrderVorticity= /* V.I High order vort. advect. flag */
(PID.TID 0000.0001)                   F
(PID.TID 0000.0001)     ;
(PID.TID 0000.0001) upwindShear= /* V.I Upwind vertical Shear advection flag */
(PID.TID 0000.0001)                   F
(PID.TID 0000.0001)     ;
(PID.TID 0000.0001) selectKEscheme= /* V.I Kinetic Energy scheme selector */
(PID.TID 0000.0001)                       0
(PID.TID 0000.0001)     ;
(PID.TID 0000.0001) momForcing =  /* Momentum forcing on/off flag */
(PID.TID 0000.0001)                   T
(PID.TID 0000.0001)     ;
(PID.TID 0000.0001) momPressureForcing =  /* Momentum pressure term on/off flag */
(PID.TID 0000.0001)                   T
(PID.TID 0000.0001)     ;
(PID.TID 0000.0001) implicitIntGravWave= /* Implicit Internal Gravity Wave flag */
(PID.TID 0000.0001)                   F
(PID.TID 0000.0001)     ;
(PID.TID 0000.0001) staggerTimeStep =    /* Stagger time stepping on/off flag */
(PID.TID 0000.0001)                   F
(PID.TID 0000.0001)     ;
(PID.TID 0000.0001) doResetHFactors = /* reset thickness factors @ each time-step */
(PID.TID 0000.0001)                   F
(PID.TID 0000.0001)     ;
(PID.TID 0000.0001) multiDimAdvection =  /* enable/disable Multi-Dim Advection */
(PID.TID 0000.0001)                   T
(PID.TID 0000.0001)     ;
(PID.TID 0000.0001) useMultiDimAdvec =   /* Multi-Dim Advection is/is-not used */
(PID.TID 0000.0001)                   F
(PID.TID 0000.0001)     ;
(PID.TID 0000.0001) implicitDiffusion = /* Implicit Diffusion on/off flag */
(PID.TID 0000.0001)                   T
(PID.TID 0000.0001)     ;
(PID.TID 0000.0001) tempStepping =  /* Temperature equation on/off flag */
(PID.TID 0000.0001)                   T
(PID.TID 0000.0001)     ;
(PID.TID 0000.0001) tempAdvection = /* Temperature advection on/off flag */
(PID.TID 0000.0001)                   T
(PID.TID 0000.0001)     ;
(PID.TID 0000.0001) tempImplVertAdv = /* Temp. implicit vert. advection on/off */
(PID.TID 0000.0001)                   F
(PID.TID 0000.0001)     ;
(PID.TID 0000.0001) tempForcing  =  /* Temperature forcing on/off flag */
(PID.TID 0000.0001)                   T
(PID.TID 0000.0001)     ;
(PID.TID 0000.0001) doThetaClimRelax = /* apply SST relaxation on/off flag */
(PID.TID 0000.0001)                   T
(PID.TID 0000.0001)     ;
(PID.TID 0000.0001) tempIsActiveTr = /* Temp. is a dynamically Active Tracer */
(PID.TID 0000.0001)                   T
(PID.TID 0000.0001)     ;
(PID.TID 0000.0001) saltStepping =  /* Salinity equation on/off flag */
(PID.TID 0000.0001)                   T
(PID.TID 0000.0001)     ;
(PID.TID 0000.0001) saltAdvection = /* Salinity advection on/off flag */
(PID.TID 0000.0001)                   T
(PID.TID 0000.0001)     ;
(PID.TID 0000.0001) saltImplVertAdv = /* Sali. implicit vert. advection on/off */
(PID.TID 0000.0001)                   F
(PID.TID 0000.0001)     ;
(PID.TID 0000.0001) saltForcing  =  /* Salinity forcing on/off flag */
(PID.TID 0000.0001)                   T
(PID.TID 0000.0001)     ;
(PID.TID 0000.0001) doSaltClimRelax = /* apply SSS relaxation on/off flag */
(PID.TID 0000.0001)                   T
(PID.TID 0000.0001)     ;
(PID.TID 0000.0001) saltIsActiveTr = /* Salt  is a dynamically Active Tracer */
(PID.TID 0000.0001)                   T
(PID.TID 0000.0001)     ;
(PID.TID 0000.0001)  readBinaryPrec = /* Precision used for reading binary files */
(PID.TID 0000.0001)                      32
(PID.TID 0000.0001)     ;
(PID.TID 0000.0001) writeBinaryPrec = /* Precision used for writing binary files */
(PID.TID 0000.0001)                      32
(PID.TID 0000.0001)     ;
(PID.TID 0000.0001)  globalFiles = /* write "global" (=not per tile) files */
(PID.TID 0000.0001)                   F
(PID.TID 0000.0001)     ;
(PID.TID 0000.0001)  useSingleCpuIO = /* only master MPI process does I/O */
(PID.TID 0000.0001)                   F
(PID.TID 0000.0001)     ;
(PID.TID 0000.0001)  useSingleCpuInput = /* only master process reads input */
(PID.TID 0000.0001)                   F
(PID.TID 0000.0001)     ;
(PID.TID 0000.0001) /* debLev[*]  : level of debug & auxiliary message printing */
(PID.TID 0000.0001) debLevZero =  0 ; /* level of disabled aux. msg printing */
(PID.TID 0000.0001)    debLevA =  1 ; /* level of minimum  aux. msg printing */
(PID.TID 0000.0001)    debLevB =  2 ; /* level of low aux. print (report read-file opening)*/
(PID.TID 0000.0001)    debLevC =  3 ; /* level of moderate debug prt (most pkgs debug msg) */
(PID.TID 0000.0001)    debLevD =  4 ; /* level of enhanced debug prt (add DEBUG_STATS prt) */
(PID.TID 0000.0001)    debLevE =  5 ; /* level of extensive debug printing */
(PID.TID 0000.0001) debugLevel =  /* select debug printing level */
(PID.TID 0000.0001)                       1
(PID.TID 0000.0001)     ;
(PID.TID 0000.0001) //
(PID.TID 0000.0001) // Elliptic solver(s) paramters ( PARM02 in namelist )
(PID.TID 0000.0001) //
(PID.TID 0000.0001) cg2dMaxIters =   /* Upper limit on 2d con. grad iterations  */
(PID.TID 0000.0001)                     500
(PID.TID 0000.0001)     ;
(PID.TID 0000.0001) cg2dChkResFreq =   /* 2d con. grad convergence test frequency */
(PID.TID 0000.0001)                       1
(PID.TID 0000.0001)     ;
(PID.TID 0000.0001) cg2dUseMinResSol= /* use cg2d last-iter(=0) / min-resid.(=1) solution */
(PID.TID 0000.0001)                       0
(PID.TID 0000.0001)     ;
(PID.TID 0000.0001) cg2dTargetResidual =   /* 2d con. grad target residual  */
(PID.TID 0000.0001)                 1.000000000000000E-13
(PID.TID 0000.0001)     ;
(PID.TID 0000.0001) cg2dTargetResWunit =   /* CG2d target residual [W units] */
(PID.TID 0000.0001)                -1.000000000000000E+00
(PID.TID 0000.0001)     ;
(PID.TID 0000.0001) cg2dPreCondFreq =   /* Freq. for updating cg2d preconditioner */
(PID.TID 0000.0001)                       1
(PID.TID 0000.0001)     ;
(PID.TID 0000.0001) useSRCGSolver =  /* use single reduction CG solver(s) */
(PID.TID 0000.0001)                   F
(PID.TID 0000.0001)     ;
(PID.TID 0000.0001) printResidualFreq = /* Freq. for printing CG residual */
(PID.TID 0000.0001)                       0
(PID.TID 0000.0001)     ;
(PID.TID 0000.0001) //
(PID.TID 0000.0001) // Time stepping paramters ( PARM03 in namelist )
(PID.TID 0000.0001) //
(PID.TID 0000.0001) deltaTMom =   /* Momentum equation timestep ( s ) */
(PID.TID 0000.0001)                 1.200000000000000E+03
(PID.TID 0000.0001)     ;
(PID.TID 0000.0001) deltaTFreeSurf = /* FreeSurface equation timestep ( s ) */
(PID.TID 0000.0001)                 1.200000000000000E+03
(PID.TID 0000.0001)     ;
(PID.TID 0000.0001) dTtracerLev =  /* Tracer equation timestep ( s ) */
(PID.TID 0000.0001)    15 @  4.320000000000000E+04              /* K =  1: 15 */
(PID.TID 0000.0001)     ;
(PID.TID 0000.0001) deltaTClock  =   /* Model clock timestep ( s ) */
(PID.TID 0000.0001)                 4.320000000000000E+04
(PID.TID 0000.0001)     ;
(PID.TID 0000.0001) cAdjFreq =   /* Convective adjustment interval ( s ) */
(PID.TID 0000.0001)                 0.000000000000000E+00
(PID.TID 0000.0001)     ;
(PID.TID 0000.0001) momForcingOutAB = /* =1: take Momentum Forcing out of Adams-Bash. stepping */
(PID.TID 0000.0001)                       0
(PID.TID 0000.0001)     ;
(PID.TID 0000.0001) tracForcingOutAB = /* =1: take T,S,pTr Forcing out of Adams-Bash. stepping */
(PID.TID 0000.0001)                       0
(PID.TID 0000.0001)     ;
(PID.TID 0000.0001) momDissip_In_AB = /* put Dissipation Tendency in Adams-Bash. stepping */
(PID.TID 0000.0001)                   T
(PID.TID 0000.0001)     ;
(PID.TID 0000.0001) doAB_onGtGs = /* apply AB on Tendencies (rather than on T,S)*/
(PID.TID 0000.0001)                   T
(PID.TID 0000.0001)     ;
(PID.TID 0000.0001) abEps =   /* Adams-Bashforth-2 stabilizing weight */
(PID.TID 0000.0001)                 1.000000000000000E-01
(PID.TID 0000.0001)     ;
(PID.TID 0000.0001) applyExchUV_early = /* Apply EXCH to U,V earlier in time-step */
(PID.TID 0000.0001)                   F
(PID.TID 0000.0001)     ;
(PID.TID 0000.0001) tauCD =   /* CD coupling time-scale ( s ) */
(PID.TID 0000.0001)                 3.214280000000000E+05
(PID.TID 0000.0001)     ;
(PID.TID 0000.0001) rCD =   /* Normalised CD coupling parameter */
(PID.TID 0000.0001)                 9.962666600296178E-01
(PID.TID 0000.0001)     ;
(PID.TID 0000.0001) epsAB_CD = /* AB-2 stabilizing weight for CD-scheme*/
(PID.TID 0000.0001)                 1.000000000000000E-01
(PID.TID 0000.0001)     ;
(PID.TID 0000.0001) pickupStrictlyMatch= /* stop if pickup do not strictly match */
(PID.TID 0000.0001)                   T
(PID.TID 0000.0001)     ;
(PID.TID 0000.0001) nIter0   =   /* Run starting timestep number */
(PID.TID 0000.0001)                       0
(PID.TID 0000.0001)     ;
(PID.TID 0000.0001) nTimeSteps = /* Number of timesteps */
(PID.TID 0000.0001)                      20
(PID.TID 0000.0001)     ;
(PID.TID 0000.0001) nEndIter =   /* Run ending timestep number */
(PID.TID 0000.0001)                      20
(PID.TID 0000.0001)     ;
(PID.TID 0000.0001) baseTime =   /* Model base time ( s ) */
(PID.TID 0000.0001)                 0.000000000000000E+00
(PID.TID 0000.0001)     ;
(PID.TID 0000.0001) startTime =  /* Run start time ( s ) */
(PID.TID 0000.0001)                 0.000000000000000E+00
(PID.TID 0000.0001)     ;
(PID.TID 0000.0001) endTime  =   /* Integration ending time ( s ) */
(PID.TID 0000.0001)                 8.640000000000000E+05
(PID.TID 0000.0001)     ;
(PID.TID 0000.0001) pChkPtFreq = /* Permanent restart/pickup file interval ( s ) */
(PID.TID 0000.0001)                 3.110400000000000E+08
(PID.TID 0000.0001)     ;
(PID.TID 0000.0001) chkPtFreq  = /* Rolling restart/pickup file interval ( s ) */
(PID.TID 0000.0001)                 0.000000000000000E+00
(PID.TID 0000.0001)     ;
(PID.TID 0000.0001) pickup_write_mdsio =   /* Model IO flag. */
(PID.TID 0000.0001)                   T
(PID.TID 0000.0001)     ;
(PID.TID 0000.0001) pickup_read_mdsio =   /* Model IO flag. */
(PID.TID 0000.0001)                   T
(PID.TID 0000.0001)     ;
(PID.TID 0000.0001) pickup_write_immed =   /* Model IO flag. */
(PID.TID 0000.0001)                   F
(PID.TID 0000.0001)     ;
(PID.TID 0000.0001) writePickupAtEnd =   /* Model IO flag. */
(PID.TID 0000.0001)                   T
(PID.TID 0000.0001)     ;
(PID.TID 0000.0001) dumpFreq =   /* Model state write out interval ( s ). */
(PID.TID 0000.0001)                 3.110400000000000E+08
(PID.TID 0000.0001)     ;
(PID.TID 0000.0001) dumpInitAndLast= /* write out Initial & Last iter. model state */
(PID.TID 0000.0001)                   T
(PID.TID 0000.0001)     ;
(PID.TID 0000.0001) snapshot_mdsio =   /* Model IO flag. */
(PID.TID 0000.0001)                   T
(PID.TID 0000.0001)     ;
(PID.TID 0000.0001) monitorFreq =   /* Monitor output interval ( s ). */
(PID.TID 0000.0001)                 1.000000000000000E+00
(PID.TID 0000.0001)     ;
(PID.TID 0000.0001) monitorSelect = /* select group of variables to monitor */
(PID.TID 0000.0001)                       3
(PID.TID 0000.0001)     ;
(PID.TID 0000.0001) monitor_stdio =   /* Model IO flag. */
(PID.TID 0000.0001)                   T
(PID.TID 0000.0001)     ;
(PID.TID 0000.0001) externForcingPeriod =   /* forcing period (s) */
(PID.TID 0000.0001)                 0.000000000000000E+00
(PID.TID 0000.0001)     ;
(PID.TID 0000.0001) externForcingCycle =   /* period of the cyle (s). */
(PID.TID 0000.0001)                 0.000000000000000E+00
(PID.TID 0000.0001)     ;
(PID.TID 0000.0001) tauThetaClimRelax =   /* relaxation time scale (s) */
(PID.TID 0000.0001)                 5.184000000000000E+06
(PID.TID 0000.0001)     ;
(PID.TID 0000.0001) tauSaltClimRelax =   /* relaxation time scale (s) */
(PID.TID 0000.0001)                 1.555200000000000E+07
(PID.TID 0000.0001)     ;
(PID.TID 0000.0001) latBandClimRelax =   /* max. Lat. where relaxation */
(PID.TID 0000.0001)                 1.800000000000000E+02
(PID.TID 0000.0001)     ;
(PID.TID 0000.0001) //
(PID.TID 0000.0001) // Gridding paramters ( PARM04 in namelist )
(PID.TID 0000.0001) //
(PID.TID 0000.0001) usingCartesianGrid = /* Cartesian coordinates flag ( True/False ) */
(PID.TID 0000.0001)                   F
(PID.TID 0000.0001)     ;
(PID.TID 0000.0001) usingCylindricalGrid = /* Cylindrical coordinates flag ( True/False ) */
(PID.TID 0000.0001)                   F
(PID.TID 0000.0001)     ;
(PID.TID 0000.0001) usingSphericalPolarGrid = /* Spherical coordinates flag ( True/False ) */
(PID.TID 0000.0001)                   T
(PID.TID 0000.0001)     ;
(PID.TID 0000.0001) usingCurvilinearGrid = /* Curvilinear coordinates flag ( True/False ) */
(PID.TID 0000.0001)                   F
(PID.TID 0000.0001)     ;
(PID.TID 0000.0001) selectSigmaCoord = /* Hybrid-Sigma Vert. Coordinate option */
(PID.TID 0000.0001)                       0
(PID.TID 0000.0001)     ;
(PID.TID 0000.0001) rSigmaBnd = /* r/sigma transition ( units of r ==  m ) */
(PID.TID 0000.0001)                 1.234567000000000E+05
(PID.TID 0000.0001)     ;
(PID.TID 0000.0001) rkSign =   /* index orientation relative to vertical coordinate */
(PID.TID 0000.0001)                -1.000000000000000E+00
(PID.TID 0000.0001)     ;
(PID.TID 0000.0001) gravitySign = /* gravity orientation relative to vertical coordinate */
(PID.TID 0000.0001)                -1.000000000000000E+00
(PID.TID 0000.0001)     ;
(PID.TID 0000.0001) seaLev_Z =  /* reference height of sea-level [m] */
(PID.TID 0000.0001)                 0.000000000000000E+00
(PID.TID 0000.0001)     ;
(PID.TID 0000.0001) top_Pres =  /* reference pressure at the top [Pa] */
(PID.TID 0000.0001)                 0.000000000000000E+00
(PID.TID 0000.0001)     ;
(PID.TID 0000.0001) mass2rUnit = /* convert mass per unit area [kg/m2] to r-units [m] */
(PID.TID 0000.0001)                 9.661835748792270E-04
(PID.TID 0000.0001)     ;
(PID.TID 0000.0001) rUnit2mass = /* convert r-units [m] to mass per unit area [kg/m2] */
(PID.TID 0000.0001)                 1.035000000000000E+03
(PID.TID 0000.0001)     ;
(PID.TID 0000.0001) drC =   /* C spacing ( units of r ) */
(PID.TID 0000.0001)                 2.500000000000000E+01,      /* K =  1 */
(PID.TID 0000.0001)                 6.000000000000000E+01,      /* K =  2 */
(PID.TID 0000.0001)                 8.500000000000000E+01,      /* K =  3 */
(PID.TID 0000.0001)                 1.200000000000000E+02,      /* K =  4 */
(PID.TID 0000.0001)                 1.650000000000000E+02,      /* K =  5 */
(PID.TID 0000.0001)                 2.150000000000000E+02,      /* K =  6 */
(PID.TID 0000.0001)                 2.650000000000000E+02,      /* K =  7 */
(PID.TID 0000.0001)                 3.150000000000000E+02,      /* K =  8 */
(PID.TID 0000.0001)                 3.650000000000000E+02,      /* K =  9 */
(PID.TID 0000.0001)                 4.150000000000000E+02,      /* K = 10 */
(PID.TID 0000.0001)                 4.650000000000000E+02,      /* K = 11 */
(PID.TID 0000.0001)                 5.150000000000000E+02,      /* K = 12 */
(PID.TID 0000.0001)                 5.650000000000000E+02,      /* K = 13 */
(PID.TID 0000.0001)                 6.150000000000000E+02,      /* K = 14 */
(PID.TID 0000.0001)                 6.650000000000000E+02,      /* K = 15 */
(PID.TID 0000.0001)                 3.450000000000000E+02       /* K = 16 */
(PID.TID 0000.0001)     ;
(PID.TID 0000.0001) drF =   /* W spacing ( units of r ) */
(PID.TID 0000.0001)                 5.000000000000000E+01,      /* K =  1 */
(PID.TID 0000.0001)                 7.000000000000000E+01,      /* K =  2 */
(PID.TID 0000.0001)                 1.000000000000000E+02,      /* K =  3 */
(PID.TID 0000.0001)                 1.400000000000000E+02,      /* K =  4 */
(PID.TID 0000.0001)                 1.900000000000000E+02,      /* K =  5 */
(PID.TID 0000.0001)                 2.400000000000000E+02,      /* K =  6 */
(PID.TID 0000.0001)                 2.900000000000000E+02,      /* K =  7 */
(PID.TID 0000.0001)                 3.400000000000000E+02,      /* K =  8 */
(PID.TID 0000.0001)                 3.900000000000000E+02,      /* K =  9 */
(PID.TID 0000.0001)                 4.400000000000000E+02,      /* K = 10 */
(PID.TID 0000.0001)                 4.900000000000000E+02,      /* K = 11 */
(PID.TID 0000.0001)                 5.400000000000000E+02,      /* K = 12 */
(PID.TID 0000.0001)                 5.900000000000000E+02,      /* K = 13 */
(PID.TID 0000.0001)                 6.400000000000000E+02,      /* K = 14 */
(PID.TID 0000.0001)                 6.900000000000000E+02       /* K = 15 */
(PID.TID 0000.0001)     ;
(PID.TID 0000.0001) delX = /* U spacing ( m - cartesian, degrees - spherical ) */
(PID.TID 0000.0001)    90 @  4.000000000000000E+00              /* I =  1: 90 */
(PID.TID 0000.0001)     ;
(PID.TID 0000.0001) delY = /* V spacing ( m - cartesian, degrees - spherical ) */
(PID.TID 0000.0001)    40 @  4.000000000000000E+00              /* J =  1: 40 */
(PID.TID 0000.0001)     ;
(PID.TID 0000.0001) xgOrigin = /* X-axis origin of West  edge (cartesian: m, lat-lon: deg) */
(PID.TID 0000.0001)                 0.000000000000000E+00
(PID.TID 0000.0001)     ;
(PID.TID 0000.0001) ygOrigin = /* Y-axis origin of South edge (cartesian: m, lat-lon: deg) */
(PID.TID 0000.0001)                -8.000000000000000E+01
(PID.TID 0000.0001)     ;
(PID.TID 0000.0001) rSphere =  /* Radius ( ignored - cartesian, m - spherical ) */
(PID.TID 0000.0001)                 6.370000000000000E+06
(PID.TID 0000.0001)     ;
(PID.TID 0000.0001) deepAtmosphere = /* Deep/Shallow Atmosphere flag (True/False) */
(PID.TID 0000.0001)                   F
(PID.TID 0000.0001)     ;
(PID.TID 0000.0001) xC =  /* xC(:,1,:,1) : P-point X coord ( deg. or m if cartesian) */
(PID.TID 0000.0001)                 2.000000000000000E+00,      /* I =  1 */
(PID.TID 0000.0001)                 6.000000000000000E+00,      /* I =  2 */
(PID.TID 0000.0001)                 1.000000000000000E+01,      /* I =  3 */
(PID.TID 0000.0001)      . . .
(PID.TID 0000.0001)                 8.200000000000000E+01,      /* I = 21 */
(PID.TID 0000.0001)                 8.600000000000000E+01,      /* I = 22 */
(PID.TID 0000.0001)                 9.000000000000000E+01,      /* I = 23 */
(PID.TID 0000.0001)                 9.400000000000000E+01,      /* I = 24 */
(PID.TID 0000.0001)                 9.800000000000000E+01,      /* I = 25 */
(PID.TID 0000.0001)                 1.020000000000000E+02,      /* I = 26 */
(PID.TID 0000.0001)      . . .
(PID.TID 0000.0001)                 1.700000000000000E+02,      /* I = 43 */
(PID.TID 0000.0001)                 1.740000000000000E+02,      /* I = 44 */
(PID.TID 0000.0001)                 1.780000000000000E+02,      /* I = 45 */
(PID.TID 0000.0001)                 1.820000000000000E+02,      /* I = 46 */
(PID.TID 0000.0001)                 1.860000000000000E+02,      /* I = 47 */
(PID.TID 0000.0001)                 1.900000000000000E+02,      /* I = 48 */
(PID.TID 0000.0001)      . . .
(PID.TID 0000.0001)                 2.580000000000000E+02,      /* I = 65 */
(PID.TID 0000.0001)                 2.620000000000000E+02,      /* I = 66 */
(PID.TID 0000.0001)                 2.660000000000000E+02,      /* I = 67 */
(PID.TID 0000.0001)                 2.700000000000000E+02,      /* I = 68 */
(PID.TID 0000.0001)                 2.740000000000000E+02,      /* I = 69 */
(PID.TID 0000.0001)                 2.780000000000000E+02,      /* I = 70 */
(PID.TID 0000.0001)      . . .
(PID.TID 0000.0001)                 3.500000000000000E+02,      /* I = 88 */
(PID.TID 0000.0001)                 3.540000000000000E+02,      /* I = 89 */
(PID.TID 0000.0001)                 3.580000000000000E+02       /* I = 90 */
(PID.TID 0000.0001)     ;
(PID.TID 0000.0001) yC =  /* yC(1,:,1,:) : P-point Y coord ( deg. or m if cartesian) */
(PID.TID 0000.0001)                -7.800000000000000E+01,      /* J =  1 */
(PID.TID 0000.0001)                -7.400000000000000E+01,      /* J =  2 */
(PID.TID 0000.0001)                -7.000000000000000E+01,      /* J =  3 */
(PID.TID 0000.0001)                -6.600000000000000E+01,      /* J =  4 */
(PID.TID 0000.0001)                -6.200000000000000E+01,      /* J =  5 */
(PID.TID 0000.0001)                -5.800000000000000E+01,      /* J =  6 */
(PID.TID 0000.0001)                -5.400000000000000E+01,      /* J =  7 */
(PID.TID 0000.0001)                -5.000000000000000E+01,      /* J =  8 */
(PID.TID 0000.0001)                -4.600000000000000E+01,      /* J =  9 */
(PID.TID 0000.0001)                -4.200000000000000E+01,      /* J = 10 */
(PID.TID 0000.0001)                -3.800000000000000E+01,      /* J = 11 */
(PID.TID 0000.0001)                -3.400000000000000E+01,      /* J = 12 */
(PID.TID 0000.0001)                -3.000000000000000E+01,      /* J = 13 */
(PID.TID 0000.0001)                -2.600000000000000E+01,      /* J = 14 */
(PID.TID 0000.0001)                -2.200000000000000E+01,      /* J = 15 */
(PID.TID 0000.0001)                -1.800000000000000E+01,      /* J = 16 */
(PID.TID 0000.0001)                -1.400000000000000E+01,      /* J = 17 */
(PID.TID 0000.0001)                -1.000000000000000E+01,      /* J = 18 */
(PID.TID 0000.0001)                -6.000000000000000E+00,      /* J = 19 */
(PID.TID 0000.0001)                -2.000000000000000E+00,      /* J = 20 */
(PID.TID 0000.0001)                 2.000000000000000E+00,      /* J = 21 */
(PID.TID 0000.0001)                 6.000000000000000E+00,      /* J = 22 */
(PID.TID 0000.0001)                 1.000000000000000E+01,      /* J = 23 */
(PID.TID 0000.0001)                 1.400000000000000E+01,      /* J = 24 */
(PID.TID 0000.0001)                 1.800000000000000E+01,      /* J = 25 */
(PID.TID 0000.0001)                 2.200000000000000E+01,      /* J = 26 */
(PID.TID 0000.0001)                 2.600000000000000E+01,      /* J = 27 */
(PID.TID 0000.0001)                 3.000000000000000E+01,      /* J = 28 */
(PID.TID 0000.0001)                 3.400000000000000E+01,      /* J = 29 */
(PID.TID 0000.0001)                 3.800000000000000E+01,      /* J = 30 */
(PID.TID 0000.0001)                 4.200000000000000E+01,      /* J = 31 */
(PID.TID 0000.0001)                 4.600000000000000E+01,      /* J = 32 */
(PID.TID 0000.0001)                 5.000000000000000E+01,      /* J = 33 */
(PID.TID 0000.0001)                 5.400000000000000E+01,      /* J = 34 */
(PID.TID 0000.0001)                 5.800000000000000E+01,      /* J = 35 */
(PID.TID 0000.0001)                 6.200000000000000E+01,      /* J = 36 */
(PID.TID 0000.0001)                 6.600000000000000E+01,      /* J = 37 */
(PID.TID 0000.0001)                 7.000000000000000E+01,      /* J = 38 */
(PID.TID 0000.0001)                 7.400000000000000E+01,      /* J = 39 */
(PID.TID 0000.0001)                 7.800000000000000E+01       /* J = 40 */
(PID.TID 0000.0001)     ;
(PID.TID 0000.0001) rcoord = /* P-point R coordinate (  units of r ) */
(PID.TID 0000.0001)                -2.500000000000000E+01,      /* K =  1 */
(PID.TID 0000.0001)                -8.500000000000000E+01,      /* K =  2 */
(PID.TID 0000.0001)                -1.700000000000000E+02,      /* K =  3 */
(PID.TID 0000.0001)                -2.900000000000000E+02,      /* K =  4 */
(PID.TID 0000.0001)                -4.550000000000000E+02,      /* K =  5 */
(PID.TID 0000.0001)                -6.700000000000000E+02,      /* K =  6 */
(PID.TID 0000.0001)                -9.350000000000000E+02,      /* K =  7 */
(PID.TID 0000.0001)                -1.250000000000000E+03,      /* K =  8 */
(PID.TID 0000.0001)                -1.615000000000000E+03,      /* K =  9 */
(PID.TID 0000.0001)                -2.030000000000000E+03,      /* K = 10 */
(PID.TID 0000.0001)                -2.495000000000000E+03,      /* K = 11 */
(PID.TID 0000.0001)                -3.010000000000000E+03,      /* K = 12 */
(PID.TID 0000.0001)                -3.575000000000000E+03,      /* K = 13 */
(PID.TID 0000.0001)                -4.190000000000000E+03,      /* K = 14 */
(PID.TID 0000.0001)                -4.855000000000000E+03       /* K = 15 */
(PID.TID 0000.0001)     ;
(PID.TID 0000.0001) rF =   /* W-Interf. R coordinate (  units of r ) */
(PID.TID 0000.0001)                 0.000000000000000E+00,      /* K =  1 */
(PID.TID 0000.0001)                -5.000000000000000E+01,      /* K =  2 */
(PID.TID 0000.0001)                -1.200000000000000E+02,      /* K =  3 */
(PID.TID 0000.0001)                -2.200000000000000E+02,      /* K =  4 */
(PID.TID 0000.0001)                -3.600000000000000E+02,      /* K =  5 */
(PID.TID 0000.0001)                -5.500000000000000E+02,      /* K =  6 */
(PID.TID 0000.0001)                -7.900000000000000E+02,      /* K =  7 */
(PID.TID 0000.0001)                -1.080000000000000E+03,      /* K =  8 */
(PID.TID 0000.0001)                -1.420000000000000E+03,      /* K =  9 */
(PID.TID 0000.0001)                -1.810000000000000E+03,      /* K = 10 */
(PID.TID 0000.0001)                -2.250000000000000E+03,      /* K = 11 */
(PID.TID 0000.0001)                -2.740000000000000E+03,      /* K = 12 */
(PID.TID 0000.0001)                -3.280000000000000E+03,      /* K = 13 */
(PID.TID 0000.0001)                -3.870000000000000E+03,      /* K = 14 */
(PID.TID 0000.0001)                -4.510000000000000E+03,      /* K = 15 */
(PID.TID 0000.0001)                -5.200000000000000E+03       /* K = 16 */
(PID.TID 0000.0001)     ;
(PID.TID 0000.0001) deepFacC = /* deep-model grid factor @ cell-Center (-) */
(PID.TID 0000.0001)    15 @  1.000000000000000E+00              /* K =  1: 15 */
(PID.TID 0000.0001)     ;
(PID.TID 0000.0001) deepFacF = /* deep-model grid factor @ W-Interface (-) */
(PID.TID 0000.0001)    16 @  1.000000000000000E+00              /* K =  1: 16 */
(PID.TID 0000.0001)     ;
(PID.TID 0000.0001) rVel2wUnit = /* convert units: rVel -> wSpeed (=1 if z-coord)*/
(PID.TID 0000.0001)    16 @  1.000000000000000E+00              /* K =  1: 16 */
(PID.TID 0000.0001)     ;
(PID.TID 0000.0001) wUnit2rVel = /* convert units: wSpeed -> rVel (=1 if z-coord)*/
(PID.TID 0000.0001)    16 @  1.000000000000000E+00              /* K =  1: 16 */
(PID.TID 0000.0001)     ;
(PID.TID 0000.0001) dBdrRef = /* Vertical grad. of reference buoyancy [(m/s/r)^2] */
(PID.TID 0000.0001)    15 @  0.000000000000000E+00              /* K =  1: 15 */
(PID.TID 0000.0001)     ;
(PID.TID 0000.0001) rotateGrid = /* use rotated grid ( True/False ) */
(PID.TID 0000.0001)                   F
(PID.TID 0000.0001)     ;
(PID.TID 0000.0001) phiEuler = /* Euler angle, rotation about original z-coordinate [rad] */
(PID.TID 0000.0001)                 0.000000000000000E+00
(PID.TID 0000.0001)     ;
(PID.TID 0000.0001) thetaEuler = /* Euler angle, rotation about new x-coordinate [rad] */
(PID.TID 0000.0001)                 0.000000000000000E+00
(PID.TID 0000.0001)     ;
(PID.TID 0000.0001) psiEuler = /* Euler angle, rotation about new z-coordinate [rad] */
(PID.TID 0000.0001)                 0.000000000000000E+00
(PID.TID 0000.0001)     ;
(PID.TID 0000.0001) dxF =  /* dxF(:,1,:,1) ( units: m ) */
(PID.TID 0000.0001)    90 @  9.246038586187513E+04              /* I =  1: 90 */
(PID.TID 0000.0001)     ;
(PID.TID 0000.0001) dxF =  /* dxF(1,:,1,:) ( units: m ) */
(PID.TID 0000.0001)                 9.246038586187513E+04,      /* J =  1 */
(PID.TID 0000.0001)                 1.225786591246834E+05,      /* J =  2 */
(PID.TID 0000.0001)                 1.520997414818001E+05,      /* J =  3 */
(PID.TID 0000.0001)                 1.808798091874300E+05,      /* J =  4 */
(PID.TID 0000.0001)                 2.087786486446736E+05,      /* J =  5 */
(PID.TID 0000.0001)                 2.356603395120765E+05,      /* J =  6 */
(PID.TID 0000.0001)                 2.613939168938713E+05,      /* J =  7 */
(PID.TID 0000.0001)                 2.858540093877838E+05,      /* J =  8 */
(PID.TID 0000.0001)                 3.089214498819034E+05,      /* J =  9 */
(PID.TID 0000.0001)                 3.304838561248741E+05,      /* J = 10 */
(PID.TID 0000.0001)                 3.504361782409254E+05,      /* J = 11 */
(PID.TID 0000.0001)                 3.686812105223082E+05,      /* J = 12 */
(PID.TID 0000.0001)                 3.851300650057323E+05,      /* J = 13 */
(PID.TID 0000.0001)                 3.997026045255871E+05,      /* J = 14 */
(PID.TID 0000.0001)                 4.123278331341585E+05,      /* J = 15 */
(PID.TID 0000.0001)                 4.229442419867491E+05,      /* J = 16 */
(PID.TID 0000.0001)                 4.315001090065870E+05,      /* J = 17 */
(PID.TID 0000.0001)                 4.379537508695838E+05,      /* J = 18 */
(PID.TID 0000.0001)                 4.422737260813012E+05,      /* J = 19 */
(PID.TID 0000.0001)     2 @  4.444389881567502E+05,             /* J = 20: 21 */
(PID.TID 0000.0001)                 4.422737260813012E+05,      /* J = 22 */
(PID.TID 0000.0001)                 4.379537508695838E+05,      /* J = 23 */
(PID.TID 0000.0001)                 4.315001090065870E+05,      /* J = 24 */
(PID.TID 0000.0001)                 4.229442419867491E+05,      /* J = 25 */
(PID.TID 0000.0001)                 4.123278331341585E+05,      /* J = 26 */
(PID.TID 0000.0001)                 3.997026045255871E+05,      /* J = 27 */
(PID.TID 0000.0001)                 3.851300650057323E+05,      /* J = 28 */
(PID.TID 0000.0001)                 3.686812105223082E+05,      /* J = 29 */
(PID.TID 0000.0001)                 3.504361782409254E+05,      /* J = 30 */
(PID.TID 0000.0001)                 3.304838561248741E+05,      /* J = 31 */
(PID.TID 0000.0001)                 3.089214498819034E+05,      /* J = 32 */
(PID.TID 0000.0001)                 2.858540093877838E+05,      /* J = 33 */
(PID.TID 0000.0001)                 2.613939168938713E+05,      /* J = 34 */
(PID.TID 0000.0001)                 2.356603395120765E+05,      /* J = 35 */
(PID.TID 0000.0001)                 2.087786486446736E+05,      /* J = 36 */
(PID.TID 0000.0001)                 1.808798091874300E+05,      /* J = 37 */
(PID.TID 0000.0001)                 1.520997414818001E+05,      /* J = 38 */
(PID.TID 0000.0001)                 1.225786591246834E+05,      /* J = 39 */
(PID.TID 0000.0001)                 9.246038586187513E+04       /* J = 40 */
(PID.TID 0000.0001)     ;
(PID.TID 0000.0001) dyF =  /* dyF(:,1,:,1) ( units: m ) */
(PID.TID 0000.0001)    90 @  4.447098934081552E+05              /* I =  1: 90 */
(PID.TID 0000.0001)     ;
(PID.TID 0000.0001) dyF =  /* dyF(1,:,1,:) ( units: m ) */
(PID.TID 0000.0001)    40 @  4.447098934081552E+05              /* J =  1: 40 */
(PID.TID 0000.0001)     ;
(PID.TID 0000.0001) dxG =  /* dxG(:,1,:,1) ( units: m ) */
(PID.TID 0000.0001)    90 @  7.722306258078101E+04              /* I =  1: 90 */
(PID.TID 0000.0001)     ;
(PID.TID 0000.0001) dxG =  /* dxG(1,:,1,:) ( units: m ) */
(PID.TID 0000.0001)                 7.722306258078101E+04,      /* J =  1 */
(PID.TID 0000.0001)                 1.075850604052271E+05,      /* J =  2 */
(PID.TID 0000.0001)                 1.374229146297914E+05,      /* J =  3 */
(PID.TID 0000.0001)                 1.665912582279823E+05,      /* J =  4 */
(PID.TID 0000.0001)                 1.949479859617814E+05,      /* J =  5 */
(PID.TID 0000.0001)                 2.223549467040777E+05,      /* J =  6 */
(PID.TID 0000.0001)                 2.486786164970726E+05,      /* J =  7 */
(PID.TID 0000.0001)                 2.737907490675810E+05,      /* J =  8 */
(PID.TID 0000.0001)                 2.975690006299821E+05,      /* J =  9 */
(PID.TID 0000.0001)                 3.198975259328452E+05,      /* J = 10 */
(PID.TID 0000.0001)                 3.406675426453503E+05,      /* J = 11 */
(PID.TID 0000.0001)                 3.597778613338690E+05,      /* J = 12 */
(PID.TID 0000.0001)                 3.771353784467131E+05,      /* J = 13 */
(PID.TID 0000.0001)                 3.926555299052806E+05,      /* J = 14 */
(PID.TID 0000.0001)                 4.062627030917454E+05,      /* J = 15 */
(PID.TID 0000.0001)                 4.178906052261313E+05,      /* J = 16 */
(PID.TID 0000.0001)                 4.274825863380723E+05,      /* J = 17 */
(PID.TID 0000.0001)                 4.349919152597734E+05,      /* J = 18 */
(PID.TID 0000.0001)                 4.403820072955634E+05,      /* J = 19 */
(PID.TID 0000.0001)                 4.436266024588540E+05,      /* J = 20 */
(PID.TID 0000.0001)                 4.447098934081552E+05,      /* J = 21 */
(PID.TID 0000.0001)                 4.436266024588540E+05,      /* J = 22 */
(PID.TID 0000.0001)                 4.403820072955634E+05,      /* J = 23 */
(PID.TID 0000.0001)                 4.349919152597734E+05,      /* J = 24 */
(PID.TID 0000.0001)                 4.274825863380723E+05,      /* J = 25 */
(PID.TID 0000.0001)                 4.178906052261313E+05,      /* J = 26 */
(PID.TID 0000.0001)                 4.062627030917454E+05,      /* J = 27 */
(PID.TID 0000.0001)                 3.926555299052806E+05,      /* J = 28 */
(PID.TID 0000.0001)                 3.771353784467131E+05,      /* J = 29 */
(PID.TID 0000.0001)                 3.597778613338690E+05,      /* J = 30 */
(PID.TID 0000.0001)                 3.406675426453503E+05,      /* J = 31 */
(PID.TID 0000.0001)                 3.198975259328452E+05,      /* J = 32 */
(PID.TID 0000.0001)                 2.975690006299821E+05,      /* J = 33 */
(PID.TID 0000.0001)                 2.737907490675810E+05,      /* J = 34 */
(PID.TID 0000.0001)                 2.486786164970726E+05,      /* J = 35 */
(PID.TID 0000.0001)                 2.223549467040777E+05,      /* J = 36 */
(PID.TID 0000.0001)                 1.949479859617814E+05,      /* J = 37 */
(PID.TID 0000.0001)                 1.665912582279823E+05,      /* J = 38 */
(PID.TID 0000.0001)                 1.374229146297914E+05,      /* J = 39 */
(PID.TID 0000.0001)                 1.075850604052271E+05       /* J = 40 */
(PID.TID 0000.0001)     ;
(PID.TID 0000.0001) dyG =  /* dyG(:,1,:,1) ( units: m ) */
(PID.TID 0000.0001)    90 @  4.447098934081552E+05              /* I =  1: 90 */
(PID.TID 0000.0001)     ;
(PID.TID 0000.0001) dyG =  /* dyG(1,:,1,:) ( units: m ) */
(PID.TID 0000.0001)    40 @  4.447098934081552E+05              /* J =  1: 40 */
(PID.TID 0000.0001)     ;
(PID.TID 0000.0001) dxC =  /* dxC(:,1,:,1) ( units: m ) */
(PID.TID 0000.0001)    90 @  9.246038586187513E+04              /* I =  1: 90 */
(PID.TID 0000.0001)     ;
(PID.TID 0000.0001) dxC =  /* dxC(1,:,1,:) ( units: m ) */
(PID.TID 0000.0001)                 9.246038586187513E+04,      /* J =  1 */
(PID.TID 0000.0001)                 1.225786591246834E+05,      /* J =  2 */
(PID.TID 0000.0001)                 1.520997414818001E+05,      /* J =  3 */
(PID.TID 0000.0001)                 1.808798091874300E+05,      /* J =  4 */
(PID.TID 0000.0001)                 2.087786486446736E+05,      /* J =  5 */
(PID.TID 0000.0001)                 2.356603395120765E+05,      /* J =  6 */
(PID.TID 0000.0001)                 2.613939168938713E+05,      /* J =  7 */
(PID.TID 0000.0001)                 2.858540093877838E+05,      /* J =  8 */
(PID.TID 0000.0001)                 3.089214498819034E+05,      /* J =  9 */
(PID.TID 0000.0001)                 3.304838561248741E+05,      /* J = 10 */
(PID.TID 0000.0001)                 3.504361782409254E+05,      /* J = 11 */
(PID.TID 0000.0001)                 3.686812105223082E+05,      /* J = 12 */
(PID.TID 0000.0001)                 3.851300650057323E+05,      /* J = 13 */
(PID.TID 0000.0001)                 3.997026045255871E+05,      /* J = 14 */
(PID.TID 0000.0001)                 4.123278331341585E+05,      /* J = 15 */
(PID.TID 0000.0001)                 4.229442419867491E+05,      /* J = 16 */
(PID.TID 0000.0001)                 4.315001090065870E+05,      /* J = 17 */
(PID.TID 0000.0001)                 4.379537508695838E+05,      /* J = 18 */
(PID.TID 0000.0001)                 4.422737260813012E+05,      /* J = 19 */
(PID.TID 0000.0001)     2 @  4.444389881567502E+05,             /* J = 20: 21 */
(PID.TID 0000.0001)                 4.422737260813012E+05,      /* J = 22 */
(PID.TID 0000.0001)                 4.379537508695838E+05,      /* J = 23 */
(PID.TID 0000.0001)                 4.315001090065870E+05,      /* J = 24 */
(PID.TID 0000.0001)                 4.229442419867491E+05,      /* J = 25 */
(PID.TID 0000.0001)                 4.123278331341585E+05,      /* J = 26 */
(PID.TID 0000.0001)                 3.997026045255871E+05,      /* J = 27 */
(PID.TID 0000.0001)                 3.851300650057323E+05,      /* J = 28 */
(PID.TID 0000.0001)                 3.686812105223082E+05,      /* J = 29 */
(PID.TID 0000.0001)                 3.504361782409254E+05,      /* J = 30 */
(PID.TID 0000.0001)                 3.304838561248741E+05,      /* J = 31 */
(PID.TID 0000.0001)                 3.089214498819034E+05,      /* J = 32 */
(PID.TID 0000.0001)                 2.858540093877838E+05,      /* J = 33 */
(PID.TID 0000.0001)                 2.613939168938713E+05,      /* J = 34 */
(PID.TID 0000.0001)                 2.356603395120765E+05,      /* J = 35 */
(PID.TID 0000.0001)                 2.087786486446736E+05,      /* J = 36 */
(PID.TID 0000.0001)                 1.808798091874300E+05,      /* J = 37 */
(PID.TID 0000.0001)                 1.520997414818001E+05,      /* J = 38 */
(PID.TID 0000.0001)                 1.225786591246834E+05,      /* J = 39 */
(PID.TID 0000.0001)                 9.246038586187513E+04       /* J = 40 */
(PID.TID 0000.0001)     ;
(PID.TID 0000.0001) dyC =  /* dyC(:,1,:,1) ( units: m ) */
(PID.TID 0000.0001)    90 @  4.447098934081552E+05              /* I =  1: 90 */
(PID.TID 0000.0001)     ;
(PID.TID 0000.0001) dyC =  /* dyC(1,:,1,:) ( units: m ) */
(PID.TID 0000.0001)    40 @  4.447098934081552E+05              /* J =  1: 40 */
(PID.TID 0000.0001)     ;
(PID.TID 0000.0001) dxV =  /* dxV(:,1,:,1) ( units: m ) */
(PID.TID 0000.0001)    90 @  7.722306258078101E+04              /* I =  1: 90 */
(PID.TID 0000.0001)     ;
(PID.TID 0000.0001) dxV =  /* dxV(1,:,1,:) ( units: m ) */
(PID.TID 0000.0001)                 7.722306258078101E+04,      /* J =  1 */
(PID.TID 0000.0001)                 1.075850604052271E+05,      /* J =  2 */
(PID.TID 0000.0001)                 1.374229146297914E+05,      /* J =  3 */
(PID.TID 0000.0001)                 1.665912582279823E+05,      /* J =  4 */
(PID.TID 0000.0001)                 1.949479859617814E+05,      /* J =  5 */
(PID.TID 0000.0001)                 2.223549467040777E+05,      /* J =  6 */
(PID.TID 0000.0001)                 2.486786164970726E+05,      /* J =  7 */
(PID.TID 0000.0001)                 2.737907490675810E+05,      /* J =  8 */
(PID.TID 0000.0001)                 2.975690006299821E+05,      /* J =  9 */
(PID.TID 0000.0001)                 3.198975259328452E+05,      /* J = 10 */
(PID.TID 0000.0001)                 3.406675426453503E+05,      /* J = 11 */
(PID.TID 0000.0001)                 3.597778613338690E+05,      /* J = 12 */
(PID.TID 0000.0001)                 3.771353784467131E+05,      /* J = 13 */
(PID.TID 0000.0001)                 3.926555299052806E+05,      /* J = 14 */
(PID.TID 0000.0001)                 4.062627030917454E+05,      /* J = 15 */
(PID.TID 0000.0001)                 4.178906052261313E+05,      /* J = 16 */
(PID.TID 0000.0001)                 4.274825863380723E+05,      /* J = 17 */
(PID.TID 0000.0001)                 4.349919152597734E+05,      /* J = 18 */
(PID.TID 0000.0001)                 4.403820072955634E+05,      /* J = 19 */
(PID.TID 0000.0001)                 4.436266024588540E+05,      /* J = 20 */
(PID.TID 0000.0001)                 4.447098934081552E+05,      /* J = 21 */
(PID.TID 0000.0001)                 4.436266024588540E+05,      /* J = 22 */
(PID.TID 0000.0001)                 4.403820072955634E+05,      /* J = 23 */
(PID.TID 0000.0001)                 4.349919152597734E+05,      /* J = 24 */
(PID.TID 0000.0001)                 4.274825863380723E+05,      /* J = 25 */
(PID.TID 0000.0001)                 4.178906052261313E+05,      /* J = 26 */
(PID.TID 0000.0001)                 4.062627030917454E+05,      /* J = 27 */
(PID.TID 0000.0001)                 3.926555299052806E+05,      /* J = 28 */
(PID.TID 0000.0001)                 3.771353784467131E+05,      /* J = 29 */
(PID.TID 0000.0001)                 3.597778613338690E+05,      /* J = 30 */
(PID.TID 0000.0001)                 3.406675426453503E+05,      /* J = 31 */
(PID.TID 0000.0001)                 3.198975259328452E+05,      /* J = 32 */
(PID.TID 0000.0001)                 2.975690006299821E+05,      /* J = 33 */
(PID.TID 0000.0001)                 2.737907490675810E+05,      /* J = 34 */
(PID.TID 0000.0001)                 2.486786164970726E+05,      /* J = 35 */
(PID.TID 0000.0001)                 2.223549467040777E+05,      /* J = 36 */
(PID.TID 0000.0001)                 1.949479859617814E+05,      /* J = 37 */
(PID.TID 0000.0001)                 1.665912582279823E+05,      /* J = 38 */
(PID.TID 0000.0001)                 1.374229146297914E+05,      /* J = 39 */
(PID.TID 0000.0001)                 1.075850604052271E+05       /* J = 40 */
(PID.TID 0000.0001)     ;
(PID.TID 0000.0001) dyU =  /* dyU(:,1,:,1) ( units: m ) */
(PID.TID 0000.0001)    90 @  4.447098934081552E+05              /* I =  1: 90 */
(PID.TID 0000.0001)     ;
(PID.TID 0000.0001) dyU =  /* dyU(1,:,1,:) ( units: m ) */
(PID.TID 0000.0001)    40 @  4.447098934081552E+05              /* J =  1: 40 */
(PID.TID 0000.0001)     ;
(PID.TID 0000.0001) rA  =  /* rA (:,1,:,1) ( units: m^2 ) */
(PID.TID 0000.0001)    90 @  4.110969866729047E+10              /* I =  1: 90 */
(PID.TID 0000.0001)     ;
(PID.TID 0000.0001) rA  =  /* rA (1,:,1,:) ( units: m^2 ) */
(PID.TID 0000.0001)                 4.110969866729047E+10,      /* J =  1 */
(PID.TID 0000.0001)                 5.450087291636665E+10,      /* J =  2 */
(PID.TID 0000.0001)                 6.762652439100235E+10,      /* J =  3 */
(PID.TID 0000.0001)                 8.042270623659998E+10,      /* J =  4 */
(PID.TID 0000.0001)                 9.282707674147523E+10,      /* J =  5 */
(PID.TID 0000.0001)                 1.047792030594103E+11,      /* J =  6 */
(PID.TID 0000.0001)                 1.162208556324093E+11,      /* J =  7 */
(PID.TID 0000.0001)                 1.270962918792468E+11,      /* J =  8 */
(PID.TID 0000.0001)                 1.373525277677229E+11,      /* J =  9 */
(PID.TID 0000.0001)                 1.469395959475426E+11,      /* J = 10 */
(PID.TID 0000.0001)                 1.558107891862220E+11,      /* J = 11 */
(PID.TID 0000.0001)                 1.639228879220326E+11,      /* J = 12 */
(PID.TID 0000.0001)                 1.712363708253573E+11,      /* J = 13 */
(PID.TID 0000.0001)                 1.777156073426415E+11,      /* J = 14 */
(PID.TID 0000.0001)                 1.833290312848623E+11,      /* J = 15 */
(PID.TID 0000.0001)                 1.880492946148330E+11,      /* J = 16 */
(PID.TID 0000.0001)                 1.918534006840893E+11,      /* J = 17 */
(PID.TID 0000.0001)                 1.947228162702492E+11,      /* J = 18 */
(PID.TID 0000.0001)                 1.966435618690094E+11,      /* J = 19 */
(PID.TID 0000.0001)     2 @  1.976062798008856E+11,             /* J = 20: 21 */
(PID.TID 0000.0001)                 1.966435618690094E+11,      /* J = 22 */
(PID.TID 0000.0001)                 1.947228162702492E+11,      /* J = 23 */
(PID.TID 0000.0001)                 1.918534006840893E+11,      /* J = 24 */
(PID.TID 0000.0001)                 1.880492946148330E+11,      /* J = 25 */
(PID.TID 0000.0001)                 1.833290312848623E+11,      /* J = 26 */
(PID.TID 0000.0001)                 1.777156073426415E+11,      /* J = 27 */
(PID.TID 0000.0001)                 1.712363708253573E+11,      /* J = 28 */
(PID.TID 0000.0001)                 1.639228879220326E+11,      /* J = 29 */
(PID.TID 0000.0001)                 1.558107891862220E+11,      /* J = 30 */
(PID.TID 0000.0001)                 1.469395959475426E+11,      /* J = 31 */
(PID.TID 0000.0001)                 1.373525277677229E+11,      /* J = 32 */
(PID.TID 0000.0001)                 1.270962918792468E+11,      /* J = 33 */
(PID.TID 0000.0001)                 1.162208556324093E+11,      /* J = 34 */
(PID.TID 0000.0001)                 1.047792030594103E+11,      /* J = 35 */
(PID.TID 0000.0001)                 9.282707674147523E+10,      /* J = 36 */
(PID.TID 0000.0001)                 8.042270623659998E+10,      /* J = 37 */
(PID.TID 0000.0001)                 6.762652439100235E+10,      /* J = 38 */
(PID.TID 0000.0001)                 5.450087291636665E+10,      /* J = 39 */
(PID.TID 0000.0001)                 4.110969866729047E+10       /* J = 40 */
(PID.TID 0000.0001)     ;
(PID.TID 0000.0001) rAw =  /* rAw(:,1,:,1) ( units: m^2 ) */
(PID.TID 0000.0001)    90 @  4.110969866729047E+10              /* I =  1: 90 */
(PID.TID 0000.0001)     ;
(PID.TID 0000.0001) rAw =  /* rAw(1,:,1,:) ( units: m^2 ) */
(PID.TID 0000.0001)                 4.110969866729047E+10,      /* J =  1 */
(PID.TID 0000.0001)                 5.450087291636665E+10,      /* J =  2 */
(PID.TID 0000.0001)                 6.762652439100235E+10,      /* J =  3 */
(PID.TID 0000.0001)                 8.042270623659998E+10,      /* J =  4 */
(PID.TID 0000.0001)                 9.282707674147523E+10,      /* J =  5 */
(PID.TID 0000.0001)                 1.047792030594103E+11,      /* J =  6 */
(PID.TID 0000.0001)                 1.162208556324093E+11,      /* J =  7 */
(PID.TID 0000.0001)                 1.270962918792468E+11,      /* J =  8 */
(PID.TID 0000.0001)                 1.373525277677229E+11,      /* J =  9 */
(PID.TID 0000.0001)                 1.469395959475426E+11,      /* J = 10 */
(PID.TID 0000.0001)                 1.558107891862220E+11,      /* J = 11 */
(PID.TID 0000.0001)                 1.639228879220326E+11,      /* J = 12 */
(PID.TID 0000.0001)                 1.712363708253573E+11,      /* J = 13 */
(PID.TID 0000.0001)                 1.777156073426415E+11,      /* J = 14 */
(PID.TID 0000.0001)                 1.833290312848623E+11,      /* J = 15 */
(PID.TID 0000.0001)                 1.880492946148330E+11,      /* J = 16 */
(PID.TID 0000.0001)                 1.918534006840893E+11,      /* J = 17 */
(PID.TID 0000.0001)                 1.947228162702492E+11,      /* J = 18 */
(PID.TID 0000.0001)                 1.966435618690094E+11,      /* J = 19 */
(PID.TID 0000.0001)     2 @  1.976062798008856E+11,             /* J = 20: 21 */
(PID.TID 0000.0001)                 1.966435618690094E+11,      /* J = 22 */
(PID.TID 0000.0001)                 1.947228162702492E+11,      /* J = 23 */
(PID.TID 0000.0001)                 1.918534006840893E+11,      /* J = 24 */
(PID.TID 0000.0001)                 1.880492946148330E+11,      /* J = 25 */
(PID.TID 0000.0001)                 1.833290312848623E+11,      /* J = 26 */
(PID.TID 0000.0001)                 1.777156073426415E+11,      /* J = 27 */
(PID.TID 0000.0001)                 1.712363708253573E+11,      /* J = 28 */
(PID.TID 0000.0001)                 1.639228879220326E+11,      /* J = 29 */
(PID.TID 0000.0001)                 1.558107891862220E+11,      /* J = 30 */
(PID.TID 0000.0001)                 1.469395959475426E+11,      /* J = 31 */
(PID.TID 0000.0001)                 1.373525277677229E+11,      /* J = 32 */
(PID.TID 0000.0001)                 1.270962918792468E+11,      /* J = 33 */
(PID.TID 0000.0001)                 1.162208556324093E+11,      /* J = 34 */
(PID.TID 0000.0001)                 1.047792030594103E+11,      /* J = 35 */
(PID.TID 0000.0001)                 9.282707674147523E+10,      /* J = 36 */
(PID.TID 0000.0001)                 8.042270623659998E+10,      /* J = 37 */
(PID.TID 0000.0001)                 6.762652439100235E+10,      /* J = 38 */
(PID.TID 0000.0001)                 5.450087291636665E+10,      /* J = 39 */
(PID.TID 0000.0001)                 4.110969866729047E+10       /* J = 40 */
(PID.TID 0000.0001)     ;
(PID.TID 0000.0001) rAs =  /* rAs(:,1,:,1) ( units: m^2 ) */
(PID.TID 0000.0001)    90 @  3.433488626798250E+10              /* I =  1: 90 */
(PID.TID 0000.0001)     ;
(PID.TID 0000.0001) rAs =  /* rAs(1,:,1,:) ( units: m^2 ) */
(PID.TID 0000.0001)                 3.433488626798250E+10,      /* J =  1 */
(PID.TID 0000.0001)                 4.783442523123625E+10,      /* J =  2 */
(PID.TID 0000.0001)                 6.110091968306414E+10,      /* J =  3 */
(PID.TID 0000.0001)                 7.406973659603818E+10,      /* J =  4 */
(PID.TID 0000.0001)                 8.667769319778079E+10,      /* J =  5 */
(PID.TID 0000.0001)                 9.886336479107463E+10,      /* J =  6 */
(PID.TID 0000.0001)                 1.105673840088173E+11,      /* J =  7 */
(PID.TID 0000.0001)                 1.217327300458638E+11,      /* J =  8 */
(PID.TID 0000.0001)                 1.323050064586578E+11,      /* J =  9 */
(PID.TID 0000.0001)                 1.422327061792377E+11,      /* J = 10 */
(PID.TID 0000.0001)                 1.514674624524945E+11,      /* J = 11 */
(PID.TID 0000.0001)                 1.599642844741385E+11,      /* J = 12 */
(PID.TID 0000.0001)                 1.676817765813788E+11,      /* J = 13 */
(PID.TID 0000.0001)                 1.745823399284268E+11,      /* J = 14 */
(PID.TID 0000.0001)                 1.806323556642996E+11,      /* J = 15 */
(PID.TID 0000.0001)                 1.858023487204767E+11,      /* J = 16 */
(PID.TID 0000.0001)                 1.900671314104743E+11,      /* J = 17 */
(PID.TID 0000.0001)                 1.934059261417216E+11,      /* J = 18 */
(PID.TID 0000.0001)                 1.958024666419019E+11,      /* J = 19 */
(PID.TID 0000.0001)                 1.972450772065981E+11,      /* J = 20 */
(PID.TID 0000.0001)                 1.977267295821495E+11,      /* J = 21 */
(PID.TID 0000.0001)                 1.972450772065981E+11,      /* J = 22 */
(PID.TID 0000.0001)                 1.958024666419019E+11,      /* J = 23 */
(PID.TID 0000.0001)                 1.934059261417216E+11,      /* J = 24 */
(PID.TID 0000.0001)                 1.900671314104743E+11,      /* J = 25 */
(PID.TID 0000.0001)                 1.858023487204767E+11,      /* J = 26 */
(PID.TID 0000.0001)                 1.806323556642996E+11,      /* J = 27 */
(PID.TID 0000.0001)                 1.745823399284268E+11,      /* J = 28 */
(PID.TID 0000.0001)                 1.676817765813788E+11,      /* J = 29 */
(PID.TID 0000.0001)                 1.599642844741385E+11,      /* J = 30 */
(PID.TID 0000.0001)                 1.514674624524945E+11,      /* J = 31 */
(PID.TID 0000.0001)                 1.422327061792377E+11,      /* J = 32 */
(PID.TID 0000.0001)                 1.323050064586578E+11,      /* J = 33 */
(PID.TID 0000.0001)                 1.217327300458638E+11,      /* J = 34 */
(PID.TID 0000.0001)                 1.105673840088173E+11,      /* J = 35 */
(PID.TID 0000.0001)                 9.886336479107463E+10,      /* J = 36 */
(PID.TID 0000.0001)                 8.667769319778079E+10,      /* J = 37 */
(PID.TID 0000.0001)                 7.406973659603818E+10,      /* J = 38 */
(PID.TID 0000.0001)                 6.110091968306414E+10,      /* J = 39 */
(PID.TID 0000.0001)                 4.783442523123625E+10       /* J = 40 */
(PID.TID 0000.0001)     ;
(PID.TID 0000.0001) globalArea = /* Integrated horizontal Area (m^2) */
(PID.TID 0000.0001)                 3.450614146649764E+14
(PID.TID 0000.0001)     ;
(PID.TID 0000.0001) // =======================================================
(PID.TID 0000.0001) // End of Model config. summary
(PID.TID 0000.0001) // =======================================================
(PID.TID 0000.0001) 
(PID.TID 0000.0001) == Packages configuration : Check & print summary ==
(PID.TID 0000.0001) 
(PID.TID 0000.0001) GMREDI_CHECK: #define GMREDI
(PID.TID 0000.0001) GM_AdvForm =     /* if FALSE => use SkewFlux Form */
(PID.TID 0000.0001)                   F
(PID.TID 0000.0001)     ;
(PID.TID 0000.0001) GM_InMomAsStress = /* if TRUE => apply as Eddy Stress */
(PID.TID 0000.0001)                   F
(PID.TID 0000.0001)     ;
(PID.TID 0000.0001) GM_AdvSeparate = /* Calc Bolus & Euler Adv. separately */
(PID.TID 0000.0001)                   F
(PID.TID 0000.0001)     ;
(PID.TID 0000.0001) GM_ExtraDiag =   /* Tensor Extra Diag (line 1&2) non 0 */
(PID.TID 0000.0001)                   F
(PID.TID 0000.0001)     ;
(PID.TID 0000.0001) GM_isopycK =    /* Background Isopyc. Diffusivity [m^2/s] */
(PID.TID 0000.0001)                 1.000000000000000E+03
(PID.TID 0000.0001)     ;
(PID.TID 0000.0001) GM_skewflx*K =  /* Background GM_SkewFlx Diffusivity [m^2/s] */
(PID.TID 0000.0001)                 1.000000000000000E+03
(PID.TID 0000.0001)     ;
(PID.TID 0000.0001) GM_advec*K =    /* Backg. GM-Advec(=Bolus) Diffusivity [m^2/s]*/
(PID.TID 0000.0001)                 0.000000000000000E+00
(PID.TID 0000.0001)     ;
(PID.TID 0000.0001) GM_Kmin_horiz = /* Minimum Horizontal Diffusivity [m^2/s] */
(PID.TID 0000.0001)                 5.000000000000000E+01
(PID.TID 0000.0001)     ;
(PID.TID 0000.0001) GM_Visbeck_alpha = /* Visbeck alpha coeff. [-] */
(PID.TID 0000.0001)                 0.000000000000000E+00
(PID.TID 0000.0001)     ;
(PID.TID 0000.0001) GM_Small_Number =  /* epsilon used in slope calc */
(PID.TID 0000.0001)                 9.999999999999999E-21
(PID.TID 0000.0001)     ;
(PID.TID 0000.0001) GM_slopeSqCutoff = /* Slope^2 cut-off value */
(PID.TID 0000.0001)                 1.000000000000000E+48
(PID.TID 0000.0001)     ;
(PID.TID 0000.0001) GM_taper_scheme =  /* Type of Tapering/Clipping scheme */
(PID.TID 0000.0001)               'gkw91                                   '
(PID.TID 0000.0001)     ;
(PID.TID 0000.0001) GM_maxSlope =  /* Maximum Slope (Tapering/Clipping) */
(PID.TID 0000.0001)                 1.000000000000000E-02
(PID.TID 0000.0001)     ;
(PID.TID 0000.0001) GM_facTrL2dz = /* Minimum Trans.Layer Thick. (factor of dz) */
(PID.TID 0000.0001)                 1.000000000000000E+00
(PID.TID 0000.0001)     ;
(PID.TID 0000.0001) GM_facTrL2ML = /* Max.Trans.Layer Thick. (factor of MxL Depth)*/
(PID.TID 0000.0001)                 5.000000000000000E+00
(PID.TID 0000.0001)     ;
(PID.TID 0000.0001) GM_maxTransLay = /* Maximum Transition Layer Thickness [m] */
(PID.TID 0000.0001)                 5.000000000000000E+02
(PID.TID 0000.0001)     ;
(PID.TID 0000.0001) GM_UseBVP = /* if TRUE => use bvp a la Ferrari et al. (2010) */
(PID.TID 0000.0001)                   F
(PID.TID 0000.0001)     ;
(PID.TID 0000.0001) GM_BVP_ModeNumber = /* Vertical mode number for BVP wave speed */
(PID.TID 0000.0001)                       1
(PID.TID 0000.0001)     ;
(PID.TID 0000.0001) GM_BVP_cMin = /* Minimum wave speed for BVP [m/s] */
(PID.TID 0000.0001)                 1.000000000000000E-01
(PID.TID 0000.0001)     ;
(PID.TID 0000.0001) GM_useSubMeso = /* if TRUE => use Sub-Meso param. (B.Fox-Kemper) */
(PID.TID 0000.0001)                   F
(PID.TID 0000.0001)     ;
(PID.TID 0000.0001) subMeso_Ceff = /* efficiency coeff. of Mixed-Layer Eddies [-] */
(PID.TID 0000.0001)                 7.000000000000001E-02
(PID.TID 0000.0001)     ;
(PID.TID 0000.0001) subMeso_invTau = /* inverse of Sub-Meso mixing time-scale [/s] */
(PID.TID 0000.0001)                 2.000000000000000E-06
(PID.TID 0000.0001)     ;
(PID.TID 0000.0001) subMeso_LfMin = /* minimum length-scale "Lf" [m] */
(PID.TID 0000.0001)                 1.000000000000000E+03
(PID.TID 0000.0001)     ;
(PID.TID 0000.0001) subMeso_Lmax = /* maximum grid-scale length [m] */
(PID.TID 0000.0001)                 1.100000000000000E+05
(PID.TID 0000.0001)     ;
(PID.TID 0000.0001) CTRL_CHECK: ctrl package
(PID.TID 0000.0001) COST_CHECK: cost package
(PID.TID 0000.0001) GRDCHK_CHECK: grdchk package
(PID.TID 0000.0001) GAD_CHECK: #define ALLOW_GENERIC_ADVDIFF
(PID.TID 0000.0001) // =======================================================
(PID.TID 0000.0001) // Check Model config. (CONFIG_CHECK):
(PID.TID 0000.0001) // CONFIG_CHECK : Normal End
(PID.TID 0000.0001) // =======================================================
(PID.TID 0000.0001) 
(PID.TID 0000.0001) Start initial hydrostatic pressure computation
(PID.TID 0000.0001) Pressure is predetermined for buoyancyRelation OCEANIC
(PID.TID 0000.0001) 
(PID.TID 0000.0001) // =======================================================
(PID.TID 0000.0001) // Begin MONITOR dynamic field statistics
(PID.TID 0000.0001) // =======================================================
(PID.TID 0000.0001) %MON time_tsnumber                =                     0
(PID.TID 0000.0001) %MON time_secondsf                =   0.0000000000000E+00
(PID.TID 0000.0001) %MON dynstat_eta_max              =   0.0000000000000E+00
(PID.TID 0000.0001) %MON dynstat_eta_min              =   0.0000000000000E+00
(PID.TID 0000.0001) %MON dynstat_eta_mean             =   0.0000000000000E+00
(PID.TID 0000.0001) %MON dynstat_eta_sd               =   0.0000000000000E+00
(PID.TID 0000.0001) %MON dynstat_eta_del2             =   0.0000000000000E+00
(PID.TID 0000.0001) %MON dynstat_uvel_max             =   0.0000000000000E+00
(PID.TID 0000.0001) %MON dynstat_uvel_min             =   0.0000000000000E+00
(PID.TID 0000.0001) %MON dynstat_uvel_mean            =   0.0000000000000E+00
(PID.TID 0000.0001) %MON dynstat_uvel_sd              =   0.0000000000000E+00
(PID.TID 0000.0001) %MON dynstat_uvel_del2            =   0.0000000000000E+00
(PID.TID 0000.0001) %MON dynstat_vvel_max             =   0.0000000000000E+00
(PID.TID 0000.0001) %MON dynstat_vvel_min             =   0.0000000000000E+00
(PID.TID 0000.0001) %MON dynstat_vvel_mean            =   0.0000000000000E+00
(PID.TID 0000.0001) %MON dynstat_vvel_sd              =   0.0000000000000E+00
(PID.TID 0000.0001) %MON dynstat_vvel_del2            =   0.0000000000000E+00
(PID.TID 0000.0001) %MON dynstat_wvel_max             =  -0.0000000000000E+00
(PID.TID 0000.0001) %MON dynstat_wvel_min             =  -0.0000000000000E+00
(PID.TID 0000.0001) %MON dynstat_wvel_mean            =   0.0000000000000E+00
(PID.TID 0000.0001) %MON dynstat_wvel_sd              =   0.0000000000000E+00
(PID.TID 0000.0001) %MON dynstat_wvel_del2            =   0.0000000000000E+00
(PID.TID 0000.0001) %MON dynstat_theta_max            =   2.9733388900757E+01
(PID.TID 0000.0001) %MON dynstat_theta_min            =  -1.9000000000000E+00
(PID.TID 0000.0001) %MON dynstat_theta_mean           =   3.6197074666131E+00
(PID.TID 0000.0001) %MON dynstat_theta_sd             =   4.4174614518570E+00
(PID.TID 0000.0001) %MON dynstat_theta_del2           =   5.6229722638208E-03
(PID.TID 0000.0001) %MON dynstat_salt_max             =   3.7475627899170E+01
(PID.TID 0000.0001) %MON dynstat_salt_min             =   2.9752769470215E+01
(PID.TID 0000.0001) %MON dynstat_salt_mean            =   3.4718006161477E+01
(PID.TID 0000.0001) %MON dynstat_salt_sd              =   2.9628819587991E-01
(PID.TID 0000.0001) %MON dynstat_salt_del2            =   1.0127003139695E-03
(PID.TID 0000.0001) %MON forcing_qnet_max             =   0.0000000000000E+00
(PID.TID 0000.0001) %MON forcing_qnet_min             =   0.0000000000000E+00
(PID.TID 0000.0001) %MON forcing_qnet_mean            =   0.0000000000000E+00
(PID.TID 0000.0001) %MON forcing_qnet_sd              =   0.0000000000000E+00
(PID.TID 0000.0001) %MON forcing_qnet_del2            =   0.0000000000000E+00
(PID.TID 0000.0001) %MON forcing_qsw_max              =   0.0000000000000E+00
(PID.TID 0000.0001) %MON forcing_qsw_min              =   0.0000000000000E+00
(PID.TID 0000.0001) %MON forcing_qsw_mean             =   0.0000000000000E+00
(PID.TID 0000.0001) %MON forcing_qsw_sd               =   0.0000000000000E+00
(PID.TID 0000.0001) %MON forcing_qsw_del2             =   0.0000000000000E+00
(PID.TID 0000.0001) %MON forcing_empmr_max            =   0.0000000000000E+00
(PID.TID 0000.0001) %MON forcing_empmr_min            =   0.0000000000000E+00
(PID.TID 0000.0001) %MON forcing_empmr_mean           =   0.0000000000000E+00
(PID.TID 0000.0001) %MON forcing_empmr_sd             =   0.0000000000000E+00
(PID.TID 0000.0001) %MON forcing_empmr_del2           =   0.0000000000000E+00
(PID.TID 0000.0001) %MON forcing_fu_max               =   0.0000000000000E+00
(PID.TID 0000.0001) %MON forcing_fu_min               =   0.0000000000000E+00
(PID.TID 0000.0001) %MON forcing_fu_mean              =   0.0000000000000E+00
(PID.TID 0000.0001) %MON forcing_fu_sd                =   0.0000000000000E+00
(PID.TID 0000.0001) %MON forcing_fu_del2              =   0.0000000000000E+00
(PID.TID 0000.0001) %MON forcing_fv_max               =   0.0000000000000E+00
(PID.TID 0000.0001) %MON forcing_fv_min               =   0.0000000000000E+00
(PID.TID 0000.0001) %MON forcing_fv_mean              =   0.0000000000000E+00
(PID.TID 0000.0001) %MON forcing_fv_sd                =   0.0000000000000E+00
(PID.TID 0000.0001) %MON forcing_fv_del2              =   0.0000000000000E+00
(PID.TID 0000.0001) %MON trAdv_CFL_u_max              =   0.0000000000000E+00
(PID.TID 0000.0001) %MON trAdv_CFL_v_max              =   0.0000000000000E+00
(PID.TID 0000.0001) %MON trAdv_CFL_w_max              =   0.0000000000000E+00
(PID.TID 0000.0001) %MON advcfl_uvel_max              =   0.0000000000000E+00
(PID.TID 0000.0001) %MON advcfl_vvel_max              =   0.0000000000000E+00
(PID.TID 0000.0001) %MON advcfl_wvel_max              =   0.0000000000000E+00
(PID.TID 0000.0001) %MON advcfl_W_hf_max              =   0.0000000000000E+00
(PID.TID 0000.0001) %MON pe_b_mean                    =   0.0000000000000E+00
(PID.TID 0000.0001) %MON ke_max                       =   0.0000000000000E+00
(PID.TID 0000.0001) %MON ke_mean                      =   0.0000000000000E+00
(PID.TID 0000.0001) %MON ke_vol                       =   1.3226782436723E+18
(PID.TID 0000.0001) %MON vort_r_min                   =   0.0000000000000E+00
(PID.TID 0000.0001) %MON vort_r_max                   =   0.0000000000000E+00
(PID.TID 0000.0001) %MON vort_a_mean                  =  -2.5205769728598E-05
(PID.TID 0000.0001) %MON vort_a_sd                    =   7.3403301351719E-05
(PID.TID 0000.0001) %MON vort_p_mean                  =  -3.1758669979760E-05
(PID.TID 0000.0001) %MON vort_p_sd                    =   1.3126616755304E-04
(PID.TID 0000.0001) %MON surfExpan_theta_mean         =   0.0000000000000E+00
(PID.TID 0000.0001) %MON surfExpan_salt_mean          =   0.0000000000000E+00
(PID.TID 0000.0001) // =======================================================
(PID.TID 0000.0001) // End MONITOR dynamic field statistics
(PID.TID 0000.0001) // =======================================================
(PID.TID 0000.0001)  EXF_SET_GEN: it=         0 loading rec=    12 from: lev_sst.bin
(PID.TID 0000.0001)  EXF_SET_GEN: it=         0 loading rec=     1 from: lev_sst.bin
(PID.TID 0000.0001)  EXF_SET_GEN: it=         0 loading rec=    12 from: lev_sss.bin
(PID.TID 0000.0001)  EXF_SET_GEN: it=         0 loading rec=     1 from: lev_sss.bin
(PID.TID 0000.0001)  EXF_SET_GEN: it=         0 loading rec=    12 from: trenberth_taux.bin
(PID.TID 0000.0001)  EXF_SET_GEN: it=         0 loading rec=     1 from: trenberth_taux.bin
(PID.TID 0000.0001)  EXF_SET_GEN: it=         0 loading rec=    12 from: trenberth_tauy.bin
(PID.TID 0000.0001)  EXF_SET_GEN: it=         0 loading rec=     1 from: trenberth_tauy.bin
(PID.TID 0000.0001)  EXF_SET_GEN: it=         0 loading rec=    12 from: ncep_qnet.bin
(PID.TID 0000.0001)  EXF_SET_GEN: it=         0 loading rec=     1 from: ncep_qnet.bin
(PID.TID 0000.0001) // =======================================================
(PID.TID 0000.0001) // Begin MONITOR EXF statistics
(PID.TID 0000.0001) // =======================================================
(PID.TID 0000.0001) %MON exf_tsnumber                 =                     0
(PID.TID 0000.0001) %MON exf_time_sec                 =   0.0000000000000E+00
(PID.TID 0000.0001) %MON exf_ustress_max              =   2.7488999068737E-01
(PID.TID 0000.0001) %MON exf_ustress_min              =  -1.6014087945223E-01
(PID.TID 0000.0001) %MON exf_ustress_mean             =   1.5030779315829E-02
(PID.TID 0000.0001) %MON exf_ustress_sd               =   8.8631710585513E-02
(PID.TID 0000.0001) %MON exf_ustress_del2             =   6.8877960374528E-04
(PID.TID 0000.0001) %MON exf_vstress_max              =   2.0835298299789E-01
(PID.TID 0000.0001) %MON exf_vstress_min              =  -1.8690676242113E-01
(PID.TID 0000.0001) %MON exf_vstress_mean             =  -6.0370444115579E-03
(PID.TID 0000.0001) %MON exf_vstress_sd               =   4.4471432541253E-02
(PID.TID 0000.0001) %MON exf_vstress_del2             =   4.6502974903782E-04
(PID.TID 0000.0001) %MON exf_hflux_max                =   4.2589080810547E+02
(PID.TID 0000.0001) %MON exf_hflux_min                =  -1.8702698516846E+02
(PID.TID 0000.0001) %MON exf_hflux_mean               =  -1.6700205338390E+01
(PID.TID 0000.0001) %MON exf_hflux_sd                 =   1.1285666794876E+02
(PID.TID 0000.0001) %MON exf_hflux_del2               =   1.1773372383983E+00
(PID.TID 0000.0001) %MON exf_climsst_max              =   2.9561637878418E+01
(PID.TID 0000.0001) %MON exf_climsst_min              =  -1.9000000000000E+00
(PID.TID 0000.0001) %MON exf_climsst_mean             =   1.8364821435178E+01
(PID.TID 0000.0001) %MON exf_climsst_sd               =   9.2122803951938E+00
(PID.TID 0000.0001) %MON exf_climsst_del2             =   2.4303814016692E-02
(PID.TID 0000.0001) %MON exf_climsss_max              =   3.7451293945313E+01
(PID.TID 0000.0001) %MON exf_climsss_min              =   2.9661429405212E+01
(PID.TID 0000.0001) %MON exf_climsss_mean             =   3.4846753273918E+01
(PID.TID 0000.0001) %MON exf_climsss_sd               =   9.6901487505657E-01
(PID.TID 0000.0001) %MON exf_climsss_del2             =   7.0345793365991E-03
(PID.TID 0000.0001) // =======================================================
(PID.TID 0000.0001) // End MONITOR EXF statistics
(PID.TID 0000.0001) // =======================================================
(PID.TID 0000.0001) SOLVE_FOR_PRESSURE: putPmEinXvector =    F
 cg2d: Sum(rhs),rhsMax =  -2.77555756156289E-16  2.53662338005399E+00
(PID.TID 0000.0001)      cg2d_init_res =   6.19025994173577E+00
(PID.TID 0000.0001)      cg2d_iters(min,last) =      -1      26
(PID.TID 0000.0001)      cg2d_last_res =   4.92999792731088E-14
(PID.TID 0000.0001) // =======================================================
(PID.TID 0000.0001) // Begin MONITOR dynamic field statistics
(PID.TID 0000.0001) // =======================================================
(PID.TID 0000.0001) %MON time_tsnumber                =                     1
(PID.TID 0000.0001) %MON time_secondsf                =   4.3200000000000E+04
(PID.TID 0000.0001) %MON dynstat_eta_max              =   1.7834036635760E-01
(PID.TID 0000.0001) %MON dynstat_eta_min              =  -1.1524770868768E-01
(PID.TID 0000.0001) %MON dynstat_eta_mean             =  -1.1608766249848E-17
(PID.TID 0000.0001) %MON dynstat_eta_sd               =   2.6146441238634E-02
(PID.TID 0000.0001) %MON dynstat_eta_del2             =   1.1687020304933E-03
(PID.TID 0000.0001) %MON dynstat_uvel_max             =   8.2017065980870E-03
(PID.TID 0000.0001) %MON dynstat_uvel_min             =  -8.7870205639833E-03
(PID.TID 0000.0001) %MON dynstat_uvel_mean            =  -3.5949102412284E-04
(PID.TID 0000.0001) %MON dynstat_uvel_sd              =   1.2232963218868E-03
(PID.TID 0000.0001) %MON dynstat_uvel_del2            =   1.1645019871449E-05
(PID.TID 0000.0001) %MON dynstat_vvel_max             =   1.8419534682980E-02
(PID.TID 0000.0001) %MON dynstat_vvel_min             =  -1.1238599609055E-02
(PID.TID 0000.0001) %MON dynstat_vvel_mean            =   9.0360644458204E-04
(PID.TID 0000.0001) %MON dynstat_vvel_sd              =   3.3983679266188E-03
(PID.TID 0000.0001) %MON dynstat_vvel_del2            =   1.5511830585828E-05
(PID.TID 0000.0001) %MON dynstat_wvel_max             =   1.5968256233580E-04
(PID.TID 0000.0001) %MON dynstat_wvel_min             =  -1.0328470054651E-04
(PID.TID 0000.0001) %MON dynstat_wvel_mean            =   1.1156519290424E-22
(PID.TID 0000.0001) %MON dynstat_wvel_sd              =   1.6738261935693E-05
(PID.TID 0000.0001) %MON dynstat_wvel_del2            =   2.5271176229257E-07
(PID.TID 0000.0001) %MON dynstat_theta_max            =   2.9730291024029E+01
(PID.TID 0000.0001) %MON dynstat_theta_min            =  -1.9000461615150E+00
(PID.TID 0000.0001) %MON dynstat_theta_mean           =   3.6197399585377E+00
(PID.TID 0000.0001) %MON dynstat_theta_sd             =   4.4172006819825E+00
(PID.TID 0000.0001) %MON dynstat_theta_del2           =   5.6287336378632E-03
(PID.TID 0000.0001) %MON dynstat_salt_max             =   3.7470515688115E+01
(PID.TID 0000.0001) %MON dynstat_salt_min             =   2.9754192248363E+01
(PID.TID 0000.0001) %MON dynstat_salt_mean            =   3.4718006046545E+01
(PID.TID 0000.0001) %MON dynstat_salt_sd              =   2.9615694173131E-01
(PID.TID 0000.0001) %MON dynstat_salt_del2            =   1.0154236975332E-03
(PID.TID 0000.0001) %MON forcing_qnet_max             =   4.2589080810547E+02
(PID.TID 0000.0001) %MON forcing_qnet_min             =  -1.8702698516846E+02
(PID.TID 0000.0001) %MON forcing_qnet_mean            =  -1.6700205338390E+01
(PID.TID 0000.0001) %MON forcing_qnet_sd              =   1.1285666794876E+02
(PID.TID 0000.0001) %MON forcing_qnet_del2            =   9.9079877721394E-01
(PID.TID 0000.0001) %MON forcing_qsw_max              =   0.0000000000000E+00
(PID.TID 0000.0001) %MON forcing_qsw_min              =   0.0000000000000E+00
(PID.TID 0000.0001) %MON forcing_qsw_mean             =   0.0000000000000E+00
(PID.TID 0000.0001) %MON forcing_qsw_sd               =   0.0000000000000E+00
(PID.TID 0000.0001) %MON forcing_qsw_del2             =   0.0000000000000E+00
(PID.TID 0000.0001) %MON forcing_empmr_max            =   0.0000000000000E+00
(PID.TID 0000.0001) %MON forcing_empmr_min            =   0.0000000000000E+00
(PID.TID 0000.0001) %MON forcing_empmr_mean           =   0.0000000000000E+00
(PID.TID 0000.0001) %MON forcing_empmr_sd             =   0.0000000000000E+00
(PID.TID 0000.0001) %MON forcing_empmr_del2           =   0.0000000000000E+00
(PID.TID 0000.0001) %MON forcing_fu_max               =   2.7286743372679E-01
(PID.TID 0000.0001) %MON forcing_fu_min               =  -1.5774825587869E-01
(PID.TID 0000.0001) %MON forcing_fu_mean              =   1.6059009244638E-02
(PID.TID 0000.0001) %MON forcing_fu_sd                =   8.9852225077625E-02
(PID.TID 0000.0001) %MON forcing_fu_del2              =   6.4526464033158E-04
(PID.TID 0000.0001) %MON forcing_fv_max               =   1.9885098189116E-01
(PID.TID 0000.0001) %MON forcing_fv_min               =  -1.4956599846482E-01
(PID.TID 0000.0001) %MON forcing_fv_mean              =  -5.8490268865938E-03
(PID.TID 0000.0001) %MON forcing_fv_sd                =   4.3024380850966E-02
(PID.TID 0000.0001) %MON forcing_fv_del2              =   3.4720178533248E-04
(PID.TID 0000.0001) %MON trAdv_CFL_u_max              =   0.0000000000000E+00
(PID.TID 0000.0001) %MON trAdv_CFL_v_max              =   0.0000000000000E+00
(PID.TID 0000.0001) %MON trAdv_CFL_w_max              =   0.0000000000000E+00
(PID.TID 0000.0001) %MON advcfl_uvel_max              =   2.7953390747829E-03
(PID.TID 0000.0001) %MON advcfl_vvel_max              =   1.7893100875415E-03
(PID.TID 0000.0001) %MON advcfl_wvel_max              =   2.5681012755494E-01
(PID.TID 0000.0001) %MON advcfl_W_hf_max              =   1.3027675391902E-01
(PID.TID 0000.0001) %MON pe_b_mean                    =   8.7479516092465E-07
(PID.TID 0000.0001) %MON ke_max                       =   1.1990109926456E-04
(PID.TID 0000.0001) %MON ke_mean                      =   6.2899488174120E-06
(PID.TID 0000.0001) %MON ke_vol                       =   1.3226782436723E+18
(PID.TID 0000.0001) %MON vort_r_min                   =  -5.9383308332544E-08
(PID.TID 0000.0001) %MON vort_r_max                   =   6.6673875971352E-08
(PID.TID 0000.0001) %MON vort_a_mean                  =  -2.5205769368589E-05
(PID.TID 0000.0001) %MON vort_a_sd                    =   7.3403223606589E-05
(PID.TID 0000.0001) %MON vort_p_mean                  =  -3.1758669526158E-05
(PID.TID 0000.0001) %MON vort_p_sd                    =   1.3126608365457E-04
(PID.TID 0000.0001) %MON surfExpan_theta_mean         =   4.6288041828946E-05
(PID.TID 0000.0001) %MON surfExpan_salt_mean          =   3.4812297697017E-06
(PID.TID 0000.0001) // =======================================================
(PID.TID 0000.0001) // End MONITOR dynamic field statistics
(PID.TID 0000.0001) // =======================================================
(PID.TID 0000.0001) // =======================================================
(PID.TID 0000.0001) // Begin MONITOR EXF statistics
(PID.TID 0000.0001) // =======================================================
(PID.TID 0000.0001) %MON exf_tsnumber                 =                     1
(PID.TID 0000.0001) %MON exf_time_sec                 =   4.3200000000000E+04
(PID.TID 0000.0001) %MON exf_ustress_max              =   2.7447456409854E-01
(PID.TID 0000.0001) %MON exf_ustress_min              =  -1.5923819378499E-01
(PID.TID 0000.0001) %MON exf_ustress_mean             =   1.5027890504196E-02
(PID.TID 0000.0001) %MON exf_ustress_sd               =   8.8622362583491E-02
(PID.TID 0000.0001) %MON exf_ustress_del2             =   6.8886970054666E-04
(PID.TID 0000.0001) %MON exf_vstress_max              =   2.0858214074566E-01
(PID.TID 0000.0001) %MON exf_vstress_min              =  -1.8662386363552E-01
(PID.TID 0000.0001) %MON exf_vstress_mean             =  -6.0060398708152E-03
(PID.TID 0000.0001) %MON exf_vstress_sd               =   4.4511397903789E-02
(PID.TID 0000.0001) %MON exf_vstress_del2             =   4.6453645043852E-04
(PID.TID 0000.0001) %MON exf_hflux_max                =   4.2639799548734E+02
(PID.TID 0000.0001) %MON exf_hflux_min                =  -1.8680093876008E+02
(PID.TID 0000.0001) %MON exf_hflux_mean               =  -1.6694151166218E+01
(PID.TID 0000.0001) %MON exf_hflux_sd                 =   1.1275125285539E+02
(PID.TID 0000.0001) %MON exf_hflux_del2               =   1.1772929134667E+00
(PID.TID 0000.0001) %MON exf_climsst_max              =   2.9553869616601E+01
(PID.TID 0000.0001) %MON exf_climsst_min              =  -1.9000000000000E+00
(PID.TID 0000.0001) %MON exf_climsst_mean             =   1.8368676314521E+01
(PID.TID 0000.0001) %MON exf_climsst_sd               =   9.2103513767114E+00
(PID.TID 0000.0001) %MON exf_climsst_del2             =   2.4267068693234E-02
(PID.TID 0000.0001) %MON exf_climsss_max              =   3.7452078911566E+01
(PID.TID 0000.0001) %MON exf_climsss_min              =   2.9664375858922E+01
(PID.TID 0000.0001) %MON exf_climsss_mean             =   3.4846855596540E+01
(PID.TID 0000.0001) %MON exf_climsss_sd               =   9.6852202071827E-01
(PID.TID 0000.0001) %MON exf_climsss_del2             =   7.0276302495755E-03
(PID.TID 0000.0001) // =======================================================
(PID.TID 0000.0001) // End MONITOR EXF statistics
(PID.TID 0000.0001) // =======================================================
 cg2d: Sum(rhs),rhsMax =   3.80251385934116E-14  5.04305351695056E+00
(PID.TID 0000.0001)      cg2d_init_res =   3.36809689018778E+00
(PID.TID 0000.0001)      cg2d_iters(min,last) =      -1      26
(PID.TID 0000.0001)      cg2d_last_res =   3.21266665346924E-14
(PID.TID 0000.0001) // =======================================================
(PID.TID 0000.0001) // Begin MONITOR dynamic field statistics
(PID.TID 0000.0001) // =======================================================
(PID.TID 0000.0001) %MON time_tsnumber                =                     2
(PID.TID 0000.0001) %MON time_secondsf                =   8.6400000000000E+04
(PID.TID 0000.0001) %MON dynstat_eta_max              =   3.7801169392188E-01
(PID.TID 0000.0001) %MON dynstat_eta_min              =  -2.5435453765636E-01
(PID.TID 0000.0001) %MON dynstat_eta_mean             =  -3.1273623599030E-17
(PID.TID 0000.0001) %MON dynstat_eta_sd               =   6.0203334244953E-02
(PID.TID 0000.0001) %MON dynstat_eta_del2             =   2.2871697805663E-03
(PID.TID 0000.0001) %MON dynstat_uvel_max             =   1.8770498727081E-02
(PID.TID 0000.0001) %MON dynstat_uvel_min             =  -1.6972178694346E-02
(PID.TID 0000.0001) %MON dynstat_uvel_mean            =  -8.8946159320443E-04
(PID.TID 0000.0001) %MON dynstat_uvel_sd              =   2.1237463596591E-03
(PID.TID 0000.0001) %MON dynstat_uvel_del2            =   2.3138623892522E-05
(PID.TID 0000.0001) %MON dynstat_vvel_max             =   3.3412334787217E-02
(PID.TID 0000.0001) %MON dynstat_vvel_min             =  -1.8001428607805E-02
(PID.TID 0000.0001) %MON dynstat_vvel_mean            =   1.7508065930333E-03
(PID.TID 0000.0001) %MON dynstat_vvel_sd              =   6.1900225861998E-03
(PID.TID 0000.0001) %MON dynstat_vvel_del2            =   2.8871845159518E-05
(PID.TID 0000.0001) %MON dynstat_wvel_max             =   2.0883680635556E-04
(PID.TID 0000.0001) %MON dynstat_wvel_min             =  -1.4685960611897E-04
(PID.TID 0000.0001) %MON dynstat_wvel_mean            =   3.2295187419648E-22
(PID.TID 0000.0001) %MON dynstat_wvel_sd              =   2.4144442928680E-05
(PID.TID 0000.0001) %MON dynstat_wvel_del2            =   2.9137302939727E-07
(PID.TID 0000.0001) %MON dynstat_theta_max            =   2.9678636166842E+01
(PID.TID 0000.0001) %MON dynstat_theta_min            =  -1.9016700561509E+00
(PID.TID 0000.0001) %MON dynstat_theta_mean           =   3.6189382082763E+00
(PID.TID 0000.0001) %MON dynstat_theta_sd             =   4.4154045467617E+00
(PID.TID 0000.0001) %MON dynstat_theta_del2           =   5.5114085078002E-03
(PID.TID 0000.0001) %MON dynstat_salt_max             =   3.7465158917311E+01
(PID.TID 0000.0001) %MON dynstat_salt_min             =   2.9756646415705E+01
(PID.TID 0000.0001) %MON dynstat_salt_mean            =   3.4717943191992E+01
(PID.TID 0000.0001) %MON dynstat_salt_sd              =   2.9609789487842E-01
(PID.TID 0000.0001) %MON dynstat_salt_del2            =   1.0200199142768E-03
(PID.TID 0000.0001) %MON forcing_qnet_max             =   4.2639799548734E+02
(PID.TID 0000.0001) %MON forcing_qnet_min             =  -1.8680093876008E+02
(PID.TID 0000.0001) %MON forcing_qnet_mean            =  -1.6694151166218E+01
(PID.TID 0000.0001) %MON forcing_qnet_sd              =   1.1275125285539E+02
(PID.TID 0000.0001) %MON forcing_qnet_del2            =   9.9127884480556E-01
(PID.TID 0000.0001) %MON forcing_qsw_max              =   0.0000000000000E+00
(PID.TID 0000.0001) %MON forcing_qsw_min              =   0.0000000000000E+00
(PID.TID 0000.0001) %MON forcing_qsw_mean             =   0.0000000000000E+00
(PID.TID 0000.0001) %MON forcing_qsw_sd               =   0.0000000000000E+00
(PID.TID 0000.0001) %MON forcing_qsw_del2             =   0.0000000000000E+00
(PID.TID 0000.0001) %MON forcing_empmr_max            =   0.0000000000000E+00
(PID.TID 0000.0001) %MON forcing_empmr_min            =   0.0000000000000E+00
(PID.TID 0000.0001) %MON forcing_empmr_mean           =   0.0000000000000E+00
(PID.TID 0000.0001) %MON forcing_empmr_sd             =   0.0000000000000E+00
(PID.TID 0000.0001) %MON forcing_empmr_del2           =   0.0000000000000E+00
(PID.TID 0000.0001) %MON forcing_fu_max               =   2.7227548581939E-01
(PID.TID 0000.0001) %MON forcing_fu_min               =  -1.5805101394653E-01
(PID.TID 0000.0001) %MON forcing_fu_mean              =   1.6055044233911E-02
(PID.TID 0000.0001) %MON forcing_fu_sd                =   8.9841658841100E-02
(PID.TID 0000.0001) %MON forcing_fu_del2              =   6.4565659499100E-04
(PID.TID 0000.0001) %MON forcing_fv_max               =   1.9953677202425E-01
(PID.TID 0000.0001) %MON forcing_fv_min               =  -1.4979143777201E-01
(PID.TID 0000.0001) %MON forcing_fv_mean              =  -5.8156920579535E-03
(PID.TID 0000.0001) %MON forcing_fv_sd                =   4.3070123215686E-02
(PID.TID 0000.0001) %MON forcing_fv_del2              =   3.4720151576684E-04
(PID.TID 0000.0001) %MON trAdv_CFL_u_max              =   2.7448576826639E-03
(PID.TID 0000.0001) %MON trAdv_CFL_v_max              =   1.8885381102954E-03
(PID.TID 0000.0001) %MON trAdv_CFL_w_max              =   1.2840506377747E-01
(PID.TID 0000.0001) %MON advcfl_uvel_max              =   5.0236141916436E-03
(PID.TID 0000.0001) %MON advcfl_vvel_max              =   3.2457403898658E-03
(PID.TID 0000.0001) %MON advcfl_wvel_max              =   2.8752671169256E-01
(PID.TID 0000.0001) %MON advcfl_W_hf_max              =   1.4917541193258E-01
(PID.TID 0000.0001) %MON pe_b_mean                    =   4.6379097048499E-06
(PID.TID 0000.0001) %MON ke_max                       =   3.9747850459151E-04
(PID.TID 0000.0001) %MON ke_mean                      =   2.0986585539317E-05
(PID.TID 0000.0001) %MON ke_vol                       =   1.3226782436723E+18
(PID.TID 0000.0001) %MON vort_r_min                   =  -1.0401954146865E-07
(PID.TID 0000.0001) %MON vort_r_max                   =   1.2611958532140E-07
(PID.TID 0000.0001) %MON vort_a_mean                  =  -2.5205769288022E-05
(PID.TID 0000.0001) %MON vort_a_sd                    =   7.3403114562114E-05
(PID.TID 0000.0001) %MON vort_p_mean                  =  -3.1758669424646E-05
(PID.TID 0000.0001) %MON vort_p_sd                    =   1.3126589494254E-04
(PID.TID 0000.0001) %MON surfExpan_theta_mean         =   8.3020642153277E-05
(PID.TID 0000.0001) %MON surfExpan_salt_mean          =   6.6168338288627E-06
(PID.TID 0000.0001) // =======================================================
(PID.TID 0000.0001) // End MONITOR dynamic field statistics
(PID.TID 0000.0001) // =======================================================
(PID.TID 0000.0001) // =======================================================
(PID.TID 0000.0001) // Begin MONITOR EXF statistics
(PID.TID 0000.0001) // =======================================================
(PID.TID 0000.0001) %MON exf_tsnumber                 =                     2
(PID.TID 0000.0001) %MON exf_time_sec                 =   8.6400000000000E+04
(PID.TID 0000.0001) %MON exf_ustress_max              =   2.7405913750972E-01
(PID.TID 0000.0001) %MON exf_ustress_min              =  -1.5946645001250E-01
(PID.TID 0000.0001) %MON exf_ustress_mean             =   1.5025001692563E-02
(PID.TID 0000.0001) %MON exf_ustress_sd               =   8.8615517327637E-02
(PID.TID 0000.0001) %MON exf_ustress_del2             =   6.8908097172501E-04
(PID.TID 0000.0001) %MON exf_vstress_max              =   2.0881129849342E-01
(PID.TID 0000.0001) %MON exf_vstress_min              =  -1.8634096484992E-01
(PID.TID 0000.0001) %MON exf_vstress_mean             =  -5.9750353300724E-03
(PID.TID 0000.0001) %MON exf_vstress_sd               =   4.4554868446764E-02
(PID.TID 0000.0001) %MON exf_vstress_del2             =   4.6416161428942E-04
(PID.TID 0000.0001) %MON exf_hflux_max                =   4.2690518286920E+02
(PID.TID 0000.0001) %MON exf_hflux_min                =  -1.8657489235170E+02
(PID.TID 0000.0001) %MON exf_hflux_mean               =  -1.6688096994045E+01
(PID.TID 0000.0001) %MON exf_hflux_sd                 =   1.1264643288199E+02
(PID.TID 0000.0001) %MON exf_hflux_del2               =   1.1772850088224E+00
(PID.TID 0000.0001) %MON exf_climsst_max              =   2.9546101354784E+01
(PID.TID 0000.0001) %MON exf_climsst_min              =  -1.9000000000000E+00
(PID.TID 0000.0001) %MON exf_climsst_mean             =   1.8372532126253E+01
(PID.TID 0000.0001) %MON exf_climsst_sd               =   9.2084804498399E+00
(PID.TID 0000.0001) %MON exf_climsst_del2             =   2.4239385550137E-02
(PID.TID 0000.0001) %MON exf_climsss_max              =   3.7452863877819E+01
(PID.TID 0000.0001) %MON exf_climsss_min              =   2.9667322312632E+01
(PID.TID 0000.0001) %MON exf_climsss_mean             =   3.4846957919163E+01
(PID.TID 0000.0001) %MON exf_climsss_sd               =   9.6804985052932E-01
(PID.TID 0000.0001) %MON exf_climsss_del2             =   7.0234812904951E-03
(PID.TID 0000.0001) // =======================================================
(PID.TID 0000.0001) // End MONITOR EXF statistics
(PID.TID 0000.0001) // =======================================================
 cg2d: Sum(rhs),rhsMax =   7.50562806350885E-14  6.28993178193994E+00
(PID.TID 0000.0001)      cg2d_init_res =   2.18219763803565E+00
(PID.TID 0000.0001)      cg2d_iters(min,last) =      -1      26
(PID.TID 0000.0001)      cg2d_last_res =   2.84741877553292E-14
(PID.TID 0000.0001) // =======================================================
(PID.TID 0000.0001) // Begin MONITOR dynamic field statistics
(PID.TID 0000.0001) // =======================================================
(PID.TID 0000.0001) %MON time_tsnumber                =                     3
(PID.TID 0000.0001) %MON time_secondsf                =   1.2960000000000E+05
(PID.TID 0000.0001) %MON dynstat_eta_max              =   5.1071575764509E-01
(PID.TID 0000.0001) %MON dynstat_eta_min              =  -3.7625182173429E-01
(PID.TID 0000.0001) %MON dynstat_eta_mean             =  -5.0375996159633E-17
(PID.TID 0000.0001) %MON dynstat_eta_sd               =   9.2315866547231E-02
(PID.TID 0000.0001) %MON dynstat_eta_del2             =   2.8329221936343E-03
(PID.TID 0000.0001) %MON dynstat_uvel_max             =   3.0447480313710E-02
(PID.TID 0000.0001) %MON dynstat_uvel_min             =  -2.9831613068425E-02
(PID.TID 0000.0001) %MON dynstat_uvel_mean            =  -1.5582538102367E-03
(PID.TID 0000.0001) %MON dynstat_uvel_sd              =   3.0082249443120E-03
(PID.TID 0000.0001) %MON dynstat_uvel_del2            =   3.5708181780679E-05
(PID.TID 0000.0001) %MON dynstat_vvel_max             =   4.4399647946687E-02
(PID.TID 0000.0001) %MON dynstat_vvel_min             =  -2.4384678511822E-02
(PID.TID 0000.0001) %MON dynstat_vvel_mean            =   2.5206696020371E-03
(PID.TID 0000.0001) %MON dynstat_vvel_sd              =   8.4514571736309E-03
(PID.TID 0000.0001) %MON dynstat_vvel_del2            =   4.4138806105770E-05
(PID.TID 0000.0001) %MON dynstat_wvel_max             =   1.9534476371336E-04
(PID.TID 0000.0001) %MON dynstat_wvel_min             =  -1.6536425571330E-04
(PID.TID 0000.0001) %MON dynstat_wvel_mean            =  -5.1745698024663E-23
(PID.TID 0000.0001) %MON dynstat_wvel_sd              =   2.6512952877060E-05
(PID.TID 0000.0001) %MON dynstat_wvel_del2            =   2.5370590173899E-07
(PID.TID 0000.0001) %MON dynstat_theta_max            =   2.9641725692382E+01
(PID.TID 0000.0001) %MON dynstat_theta_min            =  -1.9084756136719E+00
(PID.TID 0000.0001) %MON dynstat_theta_mean           =   3.6177869163051E+00
(PID.TID 0000.0001) %MON dynstat_theta_sd             =   4.4129865652935E+00
(PID.TID 0000.0001) %MON dynstat_theta_del2           =   5.4129892198198E-03
(PID.TID 0000.0001) %MON dynstat_salt_max             =   3.7460968154503E+01
(PID.TID 0000.0001) %MON dynstat_salt_min             =   2.9759548989168E+01
(PID.TID 0000.0001) %MON dynstat_salt_mean            =   3.4717847335819E+01
(PID.TID 0000.0001) %MON dynstat_salt_sd              =   2.9610549689512E-01
(PID.TID 0000.0001) %MON dynstat_salt_del2            =   1.0182424775760E-03
(PID.TID 0000.0001) %MON forcing_qnet_max             =   4.2690518286920E+02
(PID.TID 0000.0001) %MON forcing_qnet_min             =  -1.8657489235170E+02
(PID.TID 0000.0001) %MON forcing_qnet_mean            =  -1.6688096994045E+01
(PID.TID 0000.0001) %MON forcing_qnet_sd              =   1.1264643288199E+02
(PID.TID 0000.0001) %MON forcing_qnet_del2            =   9.9180049072513E-01
(PID.TID 0000.0001) %MON forcing_qsw_max              =   0.0000000000000E+00
(PID.TID 0000.0001) %MON forcing_qsw_min              =   0.0000000000000E+00
(PID.TID 0000.0001) %MON forcing_qsw_mean             =   0.0000000000000E+00
(PID.TID 0000.0001) %MON forcing_qsw_sd               =   0.0000000000000E+00
(PID.TID 0000.0001) %MON forcing_qsw_del2             =   0.0000000000000E+00
(PID.TID 0000.0001) %MON forcing_empmr_max            =   0.0000000000000E+00
(PID.TID 0000.0001) %MON forcing_empmr_min            =   0.0000000000000E+00
(PID.TID 0000.0001) %MON forcing_empmr_mean           =   0.0000000000000E+00
(PID.TID 0000.0001) %MON forcing_empmr_sd             =   0.0000000000000E+00
(PID.TID 0000.0001) %MON forcing_empmr_del2           =   0.0000000000000E+00
(PID.TID 0000.0001) %MON forcing_fu_max               =   2.7171199480372E-01
(PID.TID 0000.0001) %MON forcing_fu_min               =  -1.5835377201438E-01
(PID.TID 0000.0001) %MON forcing_fu_mean              =   1.6051079223184E-02
(PID.TID 0000.0001) %MON forcing_fu_sd                =   8.9833555996941E-02
(PID.TID 0000.0001) %MON forcing_fu_del2              =   6.4615745626553E-04
(PID.TID 0000.0001) %MON forcing_fv_max               =   2.0022256215734E-01
(PID.TID 0000.0001) %MON forcing_fv_min               =  -1.5001687707920E-01
(PID.TID 0000.0001) %MON forcing_fv_mean              =  -5.7823572293133E-03
(PID.TID 0000.0001) %MON forcing_fv_sd                =   4.3119132898368E-02
(PID.TID 0000.0001) %MON forcing_fv_del2              =   3.4728273578110E-04
(PID.TID 0000.0001) %MON trAdv_CFL_u_max              =   5.5971192499844E-03
(PID.TID 0000.0001) %MON trAdv_CFL_v_max              =   3.4257362460907E-03
(PID.TID 0000.0001) %MON trAdv_CFL_w_max              =   1.4376335584628E-01
(PID.TID 0000.0001) %MON advcfl_uvel_max              =   5.8770988169963E-03
(PID.TID 0000.0001) %MON advcfl_vvel_max              =   4.3130697556496E-03
(PID.TID 0000.0001) %MON advcfl_wvel_max              =   2.0528005782173E-01
(PID.TID 0000.0001) %MON advcfl_W_hf_max              =   1.0500963657762E-01
(PID.TID 0000.0001) %MON pe_b_mean                    =   1.0905206694548E-05
(PID.TID 0000.0001) %MON ke_max                       =   7.5943201389460E-04
(PID.TID 0000.0001) %MON ke_mean                      =   4.0133692447050E-05
(PID.TID 0000.0001) %MON ke_vol                       =   1.3226782436723E+18
(PID.TID 0000.0001) %MON vort_r_min                   =  -1.5500399701616E-07
(PID.TID 0000.0001) %MON vort_r_max                   =   1.7984300850151E-07
(PID.TID 0000.0001) %MON vort_a_mean                  =  -2.5205769306073E-05
(PID.TID 0000.0001) %MON vort_a_sd                    =   7.3402981729621E-05
(PID.TID 0000.0001) %MON vort_p_mean                  =  -3.1758669447389E-05
(PID.TID 0000.0001) %MON vort_p_sd                    =   1.3126562184712E-04
(PID.TID 0000.0001) %MON surfExpan_theta_mean         =   1.1106290134462E-04
(PID.TID 0000.0001) %MON surfExpan_salt_mean          =   9.1673889773474E-06
(PID.TID 0000.0001) // =======================================================
(PID.TID 0000.0001) // End MONITOR dynamic field statistics
(PID.TID 0000.0001) // =======================================================
(PID.TID 0000.0001) // =======================================================
(PID.TID 0000.0001) // Begin MONITOR EXF statistics
(PID.TID 0000.0001) // =======================================================
(PID.TID 0000.0001) %MON exf_tsnumber                 =                     3
(PID.TID 0000.0001) %MON exf_time_sec                 =   1.2960000000000E+05
(PID.TID 0000.0001) %MON exf_ustress_max              =   2.7364371092089E-01
(PID.TID 0000.0001) %MON exf_ustress_min              =  -1.5986004039165E-01
(PID.TID 0000.0001) %MON exf_ustress_mean             =   1.5022112880929E-02
(PID.TID 0000.0001) %MON exf_ustress_sd               =   8.8611175397966E-02
(PID.TID 0000.0001) %MON exf_ustress_del2             =   6.8941330587844E-04
(PID.TID 0000.0001) %MON exf_vstress_max              =   2.0904045624118E-01
(PID.TID 0000.0001) %MON exf_vstress_min              =  -1.8605806606431E-01
(PID.TID 0000.0001) %MON exf_vstress_mean             =  -5.9440307893297E-03
(PID.TID 0000.0001) %MON exf_vstress_sd               =   4.4601833921357E-02
(PID.TID 0000.0001) %MON exf_vstress_del2             =   4.6390552774395E-04
(PID.TID 0000.0001) %MON exf_hflux_max                =   4.2741237025107E+02
(PID.TID 0000.0001) %MON exf_hflux_min                =  -1.8634884594333E+02
(PID.TID 0000.0001) %MON exf_hflux_mean               =  -1.6682042821873E+01
(PID.TID 0000.0001) %MON exf_hflux_sd                 =   1.1254220969141E+02
(PID.TID 0000.0001) %MON exf_hflux_del2               =   1.1773135251992E+00
(PID.TID 0000.0001) %MON exf_climsst_max              =   2.9538333092966E+01
(PID.TID 0000.0001) %MON exf_climsst_min              =  -1.9000000000000E+00
(PID.TID 0000.0001) %MON exf_climsst_mean             =   1.8376391382744E+01
(PID.TID 0000.0001) %MON exf_climsst_sd               =   9.2066621227687E+00
(PID.TID 0000.0001) %MON exf_climsst_del2             =   2.4220813113014E-02
(PID.TID 0000.0001) %MON exf_climsss_max              =   3.7453648844073E+01
(PID.TID 0000.0001) %MON exf_climsss_min              =   2.9670268766342E+01
(PID.TID 0000.0001) %MON exf_climsss_mean             =   3.4847060241785E+01
(PID.TID 0000.0001) %MON exf_climsss_sd               =   9.6759839477018E-01
(PID.TID 0000.0001) %MON exf_climsss_del2             =   7.0221374226415E-03
(PID.TID 0000.0001) // =======================================================
(PID.TID 0000.0001) // End MONITOR EXF statistics
(PID.TID 0000.0001) // =======================================================
 cg2d: Sum(rhs),rhsMax =   1.00336405850499E-13  6.70007859133559E+00
(PID.TID 0000.0001)      cg2d_init_res =   1.87291899336378E+00
(PID.TID 0000.0001)      cg2d_iters(min,last) =      -1      26
(PID.TID 0000.0001)      cg2d_last_res =   2.55376894289821E-14
(PID.TID 0000.0001) // =======================================================
(PID.TID 0000.0001) // Begin MONITOR dynamic field statistics
(PID.TID 0000.0001) // =======================================================
(PID.TID 0000.0001) %MON time_tsnumber                =                     4
(PID.TID 0000.0001) %MON time_secondsf                =   1.7280000000000E+05
(PID.TID 0000.0001) %MON dynstat_eta_max              =   5.8500921982248E-01
(PID.TID 0000.0001) %MON dynstat_eta_min              =  -4.8988286928138E-01
(PID.TID 0000.0001) %MON dynstat_eta_mean             =  -2.7055872094724E-17
(PID.TID 0000.0001) %MON dynstat_eta_sd               =   1.2168962137718E-01
(PID.TID 0000.0001) %MON dynstat_eta_del2             =   2.9488324633363E-03
(PID.TID 0000.0001) %MON dynstat_uvel_max             =   4.2370151636811E-02
(PID.TID 0000.0001) %MON dynstat_uvel_min             =  -4.1948031051454E-02
(PID.TID 0000.0001) %MON dynstat_uvel_mean            =  -2.3370787767730E-03
(PID.TID 0000.0001) %MON dynstat_uvel_sd              =   4.0243999945914E-03
(PID.TID 0000.0001) %MON dynstat_uvel_del2            =   4.7390128397355E-05
(PID.TID 0000.0001) %MON dynstat_vvel_max             =   5.1653281207328E-02
(PID.TID 0000.0001) %MON dynstat_vvel_min             =  -3.5699668019646E-02
(PID.TID 0000.0001) %MON dynstat_vvel_mean            =   3.1966229583161E-03
(PID.TID 0000.0001) %MON dynstat_vvel_sd              =   1.0311940953639E-02
(PID.TID 0000.0001) %MON dynstat_vvel_del2            =   5.9856869919493E-05
(PID.TID 0000.0001) %MON dynstat_wvel_max             =   1.9707388146494E-04
(PID.TID 0000.0001) %MON dynstat_wvel_min             =  -1.9617142940965E-04
(PID.TID 0000.0001) %MON dynstat_wvel_mean            =   5.2846670323060E-22
(PID.TID 0000.0001) %MON dynstat_wvel_sd              =   2.8047582170304E-05
(PID.TID 0000.0001) %MON dynstat_wvel_del2            =   2.5097677936350E-07
(PID.TID 0000.0001) %MON dynstat_theta_max            =   2.9645907915211E+01
(PID.TID 0000.0001) %MON dynstat_theta_min            =  -1.9206067717715E+00
(PID.TID 0000.0001) %MON dynstat_theta_mean           =   3.6163785382811E+00
(PID.TID 0000.0001) %MON dynstat_theta_sd             =   4.4100702419848E+00
(PID.TID 0000.0001) %MON dynstat_theta_del2           =   5.3694315397566E-03
(PID.TID 0000.0001) %MON dynstat_salt_max             =   3.7457251412608E+01
(PID.TID 0000.0001) %MON dynstat_salt_min             =   2.9762763460885E+01
(PID.TID 0000.0001) %MON dynstat_salt_mean            =   3.4717726699092E+01
(PID.TID 0000.0001) %MON dynstat_salt_sd              =   2.9611861757431E-01
(PID.TID 0000.0001) %MON dynstat_salt_del2            =   1.0162135076969E-03
(PID.TID 0000.0001) %MON forcing_qnet_max             =   4.2741237025107E+02
(PID.TID 0000.0001) %MON forcing_qnet_min             =  -1.8634884594333E+02
(PID.TID 0000.0001) %MON forcing_qnet_mean            =  -1.6682042821873E+01
(PID.TID 0000.0001) %MON forcing_qnet_sd              =   1.1254220969141E+02
(PID.TID 0000.0001) %MON forcing_qnet_del2            =   9.9236364940445E-01
(PID.TID 0000.0001) %MON forcing_qsw_max              =   0.0000000000000E+00
(PID.TID 0000.0001) %MON forcing_qsw_min              =   0.0000000000000E+00
(PID.TID 0000.0001) %MON forcing_qsw_mean             =   0.0000000000000E+00
(PID.TID 0000.0001) %MON forcing_qsw_sd               =   0.0000000000000E+00
(PID.TID 0000.0001) %MON forcing_qsw_del2             =   0.0000000000000E+00
(PID.TID 0000.0001) %MON forcing_empmr_max            =   0.0000000000000E+00
(PID.TID 0000.0001) %MON forcing_empmr_min            =   0.0000000000000E+00
(PID.TID 0000.0001) %MON forcing_empmr_mean           =   0.0000000000000E+00
(PID.TID 0000.0001) %MON forcing_empmr_sd             =   0.0000000000000E+00
(PID.TID 0000.0001) %MON forcing_empmr_del2           =   0.0000000000000E+00
(PID.TID 0000.0001) %MON forcing_fu_max               =   2.7152394815799E-01
(PID.TID 0000.0001) %MON forcing_fu_min               =  -1.5865653008223E-01
(PID.TID 0000.0001) %MON forcing_fu_mean              =   1.6047114212457E-02
(PID.TID 0000.0001) %MON forcing_fu_sd                =   8.9827917211772E-02
(PID.TID 0000.0001) %MON forcing_fu_del2              =   6.4676697114089E-04
(PID.TID 0000.0001) %MON forcing_fv_max               =   2.0090835229043E-01
(PID.TID 0000.0001) %MON forcing_fv_min               =  -1.5024231638639E-01
(PID.TID 0000.0001) %MON forcing_fv_mean              =  -5.7490224006730E-03
(PID.TID 0000.0001) %MON forcing_fv_sd                =   4.3171398771493E-02
(PID.TID 0000.0001) %MON forcing_fv_del2              =   3.4744538822742E-04
(PID.TID 0000.0001) %MON trAdv_CFL_u_max              =   7.4037698692404E-03
(PID.TID 0000.0001) %MON trAdv_CFL_v_max              =   4.5522554545582E-03
(PID.TID 0000.0001) %MON trAdv_CFL_w_max              =   1.0481197963904E-01
(PID.TID 0000.0001) %MON advcfl_uvel_max              =   8.7642298835647E-03
(PID.TID 0000.0001) %MON advcfl_vvel_max              =   5.0177020597753E-03
(PID.TID 0000.0001) %MON advcfl_wvel_max              =   2.3599014536236E-01
(PID.TID 0000.0001) %MON advcfl_W_hf_max              =   1.1821091332057E-01
(PID.TID 0000.0001) %MON pe_b_mean                    =   1.8949086569231E-05
(PID.TID 0000.0001) %MON ke_max                       =   1.1667562983054E-03
(PID.TID 0000.0001) %MON ke_mean                      =   6.2165871666209E-05
(PID.TID 0000.0001) %MON ke_vol                       =   1.3226782436723E+18
(PID.TID 0000.0001) %MON vort_r_min                   =  -2.0217204088273E-07
(PID.TID 0000.0001) %MON vort_r_max                   =   2.2692083538479E-07
(PID.TID 0000.0001) %MON vort_a_mean                  =  -2.5205769310605E-05
(PID.TID 0000.0001) %MON vort_a_sd                    =   7.3402831071710E-05
(PID.TID 0000.0001) %MON vort_p_mean                  =  -3.1758669453100E-05
(PID.TID 0000.0001) %MON vort_p_sd                    =   1.3126526480389E-04
(PID.TID 0000.0001) %MON surfExpan_theta_mean         =   1.3217262592197E-04
(PID.TID 0000.0001) %MON surfExpan_salt_mean          =   1.1029391954923E-05
(PID.TID 0000.0001) // =======================================================
(PID.TID 0000.0001) // End MONITOR dynamic field statistics
(PID.TID 0000.0001) // =======================================================
(PID.TID 0000.0001) // =======================================================
(PID.TID 0000.0001) // Begin MONITOR EXF statistics
(PID.TID 0000.0001) // =======================================================
(PID.TID 0000.0001) %MON exf_tsnumber                 =                     4
(PID.TID 0000.0001) %MON exf_time_sec                 =   1.7280000000000E+05
(PID.TID 0000.0001) %MON exf_ustress_max              =   2.7322828433206E-01
(PID.TID 0000.0001) %MON exf_ustress_min              =  -1.6025363077079E-01
(PID.TID 0000.0001) %MON exf_ustress_mean             =   1.5019224069296E-02
(PID.TID 0000.0001) %MON exf_ustress_sd               =   8.8609337162474E-02
(PID.TID 0000.0001) %MON exf_ustress_del2             =   6.8986652804546E-04
(PID.TID 0000.0001) %MON exf_vstress_max              =   2.0926961398894E-01
(PID.TID 0000.0001) %MON exf_vstress_min              =  -1.8577516727871E-01
(PID.TID 0000.0001) %MON exf_vstress_mean             =  -5.9130262485869E-03
(PID.TID 0000.0001) %MON exf_vstress_sd               =   4.4652283299615E-02
(PID.TID 0000.0001) %MON exf_vstress_del2             =   4.6376838751787E-04
(PID.TID 0000.0001) %MON exf_hflux_max                =   4.2791955763294E+02
(PID.TID 0000.0001) %MON exf_hflux_min                =  -1.8612279953495E+02
(PID.TID 0000.0001) %MON exf_hflux_mean               =  -1.6675988649700E+01
(PID.TID 0000.0001) %MON exf_hflux_sd                 =   1.1243858494319E+02
(PID.TID 0000.0001) %MON exf_hflux_del2               =   1.1773784599505E+00
(PID.TID 0000.0001) %MON exf_climsst_max              =   2.9530564831149E+01
(PID.TID 0000.0001) %MON exf_climsst_min              =  -1.9000000000000E+00
(PID.TID 0000.0001) %MON exf_climsst_mean             =   1.8380250639236E+01
(PID.TID 0000.0001) %MON exf_climsst_sd               =   9.2049040151256E+00
(PID.TID 0000.0001) %MON exf_climsst_del2             =   2.4211345121699E-02
(PID.TID 0000.0001) %MON exf_climsss_max              =   3.7454433810326E+01
(PID.TID 0000.0001) %MON exf_climsss_min              =   2.9673215220051E+01
(PID.TID 0000.0001) %MON exf_climsss_mean             =   3.4847162564407E+01
(PID.TID 0000.0001) %MON exf_climsss_sd               =   9.6716768244817E-01
(PID.TID 0000.0001) %MON exf_climsss_del2             =   7.0236002561602E-03
(PID.TID 0000.0001) // =======================================================
(PID.TID 0000.0001) // End MONITOR EXF statistics
(PID.TID 0000.0001) // =======================================================
 cg2d: Sum(rhs),rhsMax =   5.93969318174459E-14  6.82703161607703E+00
(PID.TID 0000.0001)      cg2d_init_res =   1.76875007905671E+00
(PID.TID 0000.0001)      cg2d_iters(min,last) =      -1      26
(PID.TID 0000.0001)      cg2d_last_res =   2.61696188215599E-14
(PID.TID 0000.0001) // =======================================================
(PID.TID 0000.0001) // Begin MONITOR dynamic field statistics
(PID.TID 0000.0001) // =======================================================
(PID.TID 0000.0001) %MON time_tsnumber                =                     5
(PID.TID 0000.0001) %MON time_secondsf                =   2.1600000000000E+05
(PID.TID 0000.0001) %MON dynstat_eta_max              =   6.2766141182721E-01
(PID.TID 0000.0001) %MON dynstat_eta_min              =  -5.6627382790468E-01
(PID.TID 0000.0001) %MON dynstat_eta_mean             =  -4.2112068699738E-17
(PID.TID 0000.0001) %MON dynstat_eta_sd               =   1.4940426702770E-01
(PID.TID 0000.0001) %MON dynstat_eta_del2             =   2.8718111514063E-03
(PID.TID 0000.0001) %MON dynstat_uvel_max             =   5.4068160209257E-02
(PID.TID 0000.0001) %MON dynstat_uvel_min             =  -5.2014178545460E-02
(PID.TID 0000.0001) %MON dynstat_uvel_mean            =  -3.1957288726892E-03
(PID.TID 0000.0001) %MON dynstat_uvel_sd              =   5.1485320886573E-03
(PID.TID 0000.0001) %MON dynstat_uvel_del2            =   5.7374239618716E-05
(PID.TID 0000.0001) %MON dynstat_vvel_max             =   5.5976684172092E-02
(PID.TID 0000.0001) %MON dynstat_vvel_min             =  -4.6316936834306E-02
(PID.TID 0000.0001) %MON dynstat_vvel_mean            =   3.7651826041186E-03
(PID.TID 0000.0001) %MON dynstat_vvel_sd              =   1.1812183496344E-02
(PID.TID 0000.0001) %MON dynstat_vvel_del2            =   7.3666829777064E-05
(PID.TID 0000.0001) %MON dynstat_wvel_max             =   2.2270914484920E-04
(PID.TID 0000.0001) %MON dynstat_wvel_min             =  -2.2597475020464E-04
(PID.TID 0000.0001) %MON dynstat_wvel_mean            =   4.0515780581013E-22
(PID.TID 0000.0001) %MON dynstat_wvel_sd              =   2.9602026208135E-05
(PID.TID 0000.0001) %MON dynstat_wvel_del2            =   2.7642571540834E-07
(PID.TID 0000.0001) %MON dynstat_theta_max            =   2.9675564257703E+01
(PID.TID 0000.0001) %MON dynstat_theta_min            =  -1.9423274345336E+00
(PID.TID 0000.0001) %MON dynstat_theta_mean           =   3.6147795010756E+00
(PID.TID 0000.0001) %MON dynstat_theta_sd             =   4.4067543915320E+00
(PID.TID 0000.0001) %MON dynstat_theta_del2           =   5.3538427693808E-03
(PID.TID 0000.0001) %MON dynstat_salt_max             =   3.7453484254625E+01
(PID.TID 0000.0001) %MON dynstat_salt_min             =   2.9766140785211E+01
(PID.TID 0000.0001) %MON dynstat_salt_mean            =   3.4717589743257E+01
(PID.TID 0000.0001) %MON dynstat_salt_sd              =   2.9613913290126E-01
(PID.TID 0000.0001) %MON dynstat_salt_del2            =   1.0148695120426E-03
(PID.TID 0000.0001) %MON forcing_qnet_max             =   4.2791955763294E+02
(PID.TID 0000.0001) %MON forcing_qnet_min             =  -1.8612279953495E+02
(PID.TID 0000.0001) %MON forcing_qnet_mean            =  -1.6675988649700E+01
(PID.TID 0000.0001) %MON forcing_qnet_sd              =   1.1243858494319E+02
(PID.TID 0000.0001) %MON forcing_qnet_del2            =   9.9296825021206E-01
(PID.TID 0000.0001) %MON forcing_qsw_max              =   0.0000000000000E+00
(PID.TID 0000.0001) %MON forcing_qsw_min              =   0.0000000000000E+00
(PID.TID 0000.0001) %MON forcing_qsw_mean             =   0.0000000000000E+00
(PID.TID 0000.0001) %MON forcing_qsw_sd               =   0.0000000000000E+00
(PID.TID 0000.0001) %MON forcing_qsw_del2             =   0.0000000000000E+00
(PID.TID 0000.0001) %MON forcing_empmr_max            =   0.0000000000000E+00
(PID.TID 0000.0001) %MON forcing_empmr_min            =   0.0000000000000E+00
(PID.TID 0000.0001) %MON forcing_empmr_mean           =   0.0000000000000E+00
(PID.TID 0000.0001) %MON forcing_empmr_sd             =   0.0000000000000E+00
(PID.TID 0000.0001) %MON forcing_empmr_del2           =   0.0000000000000E+00
(PID.TID 0000.0001) %MON forcing_fu_max               =   2.7133590151225E-01
(PID.TID 0000.0001) %MON forcing_fu_min               =  -1.5895928815007E-01
(PID.TID 0000.0001) %MON forcing_fu_mean              =   1.6043149201730E-02
(PID.TID 0000.0001) %MON forcing_fu_sd                =   8.9824742949640E-02
(PID.TID 0000.0001) %MON forcing_fu_del2              =   6.4748483277140E-04
(PID.TID 0000.0001) %MON forcing_fv_max               =   2.0159414242352E-01
(PID.TID 0000.0001) %MON forcing_fv_min               =  -1.5046775569358E-01
(PID.TID 0000.0001) %MON forcing_fv_mean              =  -5.7156875720328E-03
(PID.TID 0000.0001) %MON forcing_fv_sd                =   4.3226909023834E-02
(PID.TID 0000.0001) %MON forcing_fv_del2              =   3.4768935882117E-04
(PID.TID 0000.0001) %MON trAdv_CFL_u_max              =   8.8627394206391E-03
(PID.TID 0000.0001) %MON trAdv_CFL_v_max              =   6.6705200384998E-03
(PID.TID 0000.0001) %MON trAdv_CFL_w_max              =   1.1799507268118E-01
(PID.TID 0000.0001) %MON advcfl_uvel_max              =   1.1251643630403E-02
(PID.TID 0000.0001) %MON advcfl_vvel_max              =   5.4376859882786E-03
(PID.TID 0000.0001) %MON advcfl_wvel_max              =   2.4308705789312E-01
(PID.TID 0000.0001) %MON advcfl_W_hf_max              =   1.2349709412839E-01
(PID.TID 0000.0001) %MON pe_b_mean                    =   2.8563222480142E-05
(PID.TID 0000.0001) %MON ke_max                       =   1.6439112411115E-03
(PID.TID 0000.0001) %MON ke_mean                      =   8.5687071020763E-05
(PID.TID 0000.0001) %MON ke_vol                       =   1.3226782436723E+18
(PID.TID 0000.0001) %MON vort_r_min                   =  -2.4294974621374E-07
(PID.TID 0000.0001) %MON vort_r_max                   =   2.6609316786230E-07
(PID.TID 0000.0001) %MON vort_a_mean                  =  -2.5205769310456E-05
(PID.TID 0000.0001) %MON vort_a_sd                    =   7.3402667498140E-05
(PID.TID 0000.0001) %MON vort_p_mean                  =  -3.1758669452911E-05
(PID.TID 0000.0001) %MON vort_p_sd                    =   1.3126483053568E-04
(PID.TID 0000.0001) %MON surfExpan_theta_mean         =   1.4724553739534E-04
(PID.TID 0000.0001) %MON surfExpan_salt_mean          =   1.2254956089683E-05
(PID.TID 0000.0001) // =======================================================
(PID.TID 0000.0001) // End MONITOR dynamic field statistics
(PID.TID 0000.0001) // =======================================================
(PID.TID 0000.0001) // =======================================================
(PID.TID 0000.0001) // Begin MONITOR EXF statistics
(PID.TID 0000.0001) // =======================================================
(PID.TID 0000.0001) %MON exf_tsnumber                 =                     5
(PID.TID 0000.0001) %MON exf_time_sec                 =   2.1600000000000E+05
(PID.TID 0000.0001) %MON exf_ustress_max              =   2.7281285774323E-01
(PID.TID 0000.0001) %MON exf_ustress_min              =  -1.6064722114994E-01
(PID.TID 0000.0001) %MON exf_ustress_mean             =   1.5016335257663E-02
(PID.TID 0000.0001) %MON exf_ustress_sd               =   8.8610002776980E-02
(PID.TID 0000.0001) %MON exf_ustress_del2             =   6.9044040016445E-04
(PID.TID 0000.0001) %MON exf_vstress_max              =   2.0949877173670E-01
(PID.TID 0000.0001) %MON exf_vstress_min              =  -1.8549226849310E-01
(PID.TID 0000.0001) %MON exf_vstress_mean             =  -5.8820217078441E-03
(PID.TID 0000.0001) %MON exf_vstress_sd               =   4.4706204787150E-02
(PID.TID 0000.0001) %MON exf_vstress_del2             =   4.6375029913561E-04
(PID.TID 0000.0001) %MON exf_hflux_max                =   4.2842674501481E+02
(PID.TID 0000.0001) %MON exf_hflux_min                =  -1.8589675312658E+02
(PID.TID 0000.0001) %MON exf_hflux_mean               =  -1.6669934477528E+01
(PID.TID 0000.0001) %MON exf_hflux_sd                 =   1.1233556029344E+02
(PID.TID 0000.0001) %MON exf_hflux_del2               =   1.1774798070513E+00
(PID.TID 0000.0001) %MON exf_climsst_max              =   2.9522796569332E+01
(PID.TID 0000.0001) %MON exf_climsst_min              =  -1.9000000000000E+00
(PID.TID 0000.0001) %MON exf_climsst_mean             =   1.8384109895727E+01
(PID.TID 0000.0001) %MON exf_climsst_sd               =   9.2032061614223E+00
(PID.TID 0000.0001) %MON exf_climsst_del2             =   2.4210992257393E-02
(PID.TID 0000.0001) %MON exf_climsss_max              =   3.7455218776580E+01
(PID.TID 0000.0001) %MON exf_climsss_min              =   2.9676161673761E+01
(PID.TID 0000.0001) %MON exf_climsss_mean             =   3.4847264887029E+01
(PID.TID 0000.0001) %MON exf_climsss_sd               =   9.6675774128830E-01
(PID.TID 0000.0001) %MON exf_climsss_del2             =   7.0278680384274E-03
(PID.TID 0000.0001) // =======================================================
(PID.TID 0000.0001) // End MONITOR EXF statistics
(PID.TID 0000.0001) // =======================================================
 cg2d: Sum(rhs),rhsMax =  -3.24185123190546E-14  6.85801094466119E+00
(PID.TID 0000.0001)      cg2d_init_res =   1.69333738721926E+00
(PID.TID 0000.0001)      cg2d_iters(min,last) =      -1      26
(PID.TID 0000.0001)      cg2d_last_res =   2.67811984694815E-14
(PID.TID 0000.0001) // =======================================================
(PID.TID 0000.0001) // Begin MONITOR dynamic field statistics
(PID.TID 0000.0001) // =======================================================
(PID.TID 0000.0001) %MON time_tsnumber                =                     6
(PID.TID 0000.0001) %MON time_secondsf                =   2.5920000000000E+05
(PID.TID 0000.0001) %MON dynstat_eta_max              =   7.1824925854669E-01
(PID.TID 0000.0001) %MON dynstat_eta_min              =  -6.2212514611702E-01
(PID.TID 0000.0001) %MON dynstat_eta_mean             =  -3.9168752070186E-17
(PID.TID 0000.0001) %MON dynstat_eta_sd               =   1.7603078972467E-01
(PID.TID 0000.0001) %MON dynstat_eta_del2             =   2.7463213254284E-03
(PID.TID 0000.0001) %MON dynstat_uvel_max             =   6.5244328836446E-02
(PID.TID 0000.0001) %MON dynstat_uvel_min             =  -6.0113676952461E-02
(PID.TID 0000.0001) %MON dynstat_uvel_mean            =  -4.1028747576667E-03
(PID.TID 0000.0001) %MON dynstat_uvel_sd              =   6.3429248795664E-03
(PID.TID 0000.0001) %MON dynstat_uvel_del2            =   6.5937570884115E-05
(PID.TID 0000.0001) %MON dynstat_vvel_max             =   6.5077451238084E-02
(PID.TID 0000.0001) %MON dynstat_vvel_min             =  -5.6002191963001E-02
(PID.TID 0000.0001) %MON dynstat_vvel_mean            =   4.2163906061444E-03
(PID.TID 0000.0001) %MON dynstat_vvel_sd              =   1.2974156272485E-02
(PID.TID 0000.0001) %MON dynstat_vvel_del2            =   8.4972324212586E-05
(PID.TID 0000.0001) %MON dynstat_wvel_max             =   2.4290572911784E-04
(PID.TID 0000.0001) %MON dynstat_wvel_min             =  -2.5030067977368E-04
(PID.TID 0000.0001) %MON dynstat_wvel_mean            =   4.1102965806824E-22
(PID.TID 0000.0001) %MON dynstat_wvel_sd              =   3.1185150972352E-05
(PID.TID 0000.0001) %MON dynstat_wvel_del2            =   3.0977356385367E-07
(PID.TID 0000.0001) %MON dynstat_theta_max            =   2.9704136577208E+01
(PID.TID 0000.0001) %MON dynstat_theta_min            =  -1.9694552177519E+00
(PID.TID 0000.0001) %MON dynstat_theta_mean           =   3.6130519490663E+00
(PID.TID 0000.0001) %MON dynstat_theta_sd             =   4.4031183165063E+00
(PID.TID 0000.0001) %MON dynstat_theta_del2           =   5.3380897259235E-03
(PID.TID 0000.0001) %MON dynstat_salt_max             =   3.7449713065833E+01
(PID.TID 0000.0001) %MON dynstat_salt_min             =   2.9769535325110E+01
(PID.TID 0000.0001) %MON dynstat_salt_mean            =   3.4717443293192E+01
(PID.TID 0000.0001) %MON dynstat_salt_sd              =   2.9615523621216E-01
(PID.TID 0000.0001) %MON dynstat_salt_del2            =   1.0133163408620E-03
(PID.TID 0000.0001) %MON forcing_qnet_max             =   4.2842674501481E+02
(PID.TID 0000.0001) %MON forcing_qnet_min             =  -1.8589675312658E+02
(PID.TID 0000.0001) %MON forcing_qnet_mean            =  -1.6669934477528E+01
(PID.TID 0000.0001) %MON forcing_qnet_sd              =   1.1233556029344E+02
(PID.TID 0000.0001) %MON forcing_qnet_del2            =   9.9361421749702E-01
(PID.TID 0000.0001) %MON forcing_qsw_max              =   0.0000000000000E+00
(PID.TID 0000.0001) %MON forcing_qsw_min              =   0.0000000000000E+00
(PID.TID 0000.0001) %MON forcing_qsw_mean             =   0.0000000000000E+00
(PID.TID 0000.0001) %MON forcing_qsw_sd               =   0.0000000000000E+00
(PID.TID 0000.0001) %MON forcing_qsw_del2             =   0.0000000000000E+00
(PID.TID 0000.0001) %MON forcing_empmr_max            =   0.0000000000000E+00
(PID.TID 0000.0001) %MON forcing_empmr_min            =   0.0000000000000E+00
(PID.TID 0000.0001) %MON forcing_empmr_mean           =   0.0000000000000E+00
(PID.TID 0000.0001) %MON forcing_empmr_sd             =   0.0000000000000E+00
(PID.TID 0000.0001) %MON forcing_empmr_del2           =   0.0000000000000E+00
(PID.TID 0000.0001) %MON forcing_fu_max               =   2.7114785486652E-01
(PID.TID 0000.0001) %MON forcing_fu_min               =  -1.5926204621792E-01
(PID.TID 0000.0001) %MON forcing_fu_mean              =   1.6039184191003E-02
(PID.TID 0000.0001) %MON forcing_fu_sd                =   8.9824033471825E-02
(PID.TID 0000.0001) %MON forcing_fu_del2              =   6.4831068124650E-04
(PID.TID 0000.0001) %MON forcing_fv_max               =   2.0227993255661E-01
(PID.TID 0000.0001) %MON forcing_fv_min               =  -1.5069319500077E-01
(PID.TID 0000.0001) %MON forcing_fv_mean              =  -5.6823527433926E-03
(PID.TID 0000.0001) %MON forcing_fv_sd                =   4.3285651173452E-02
(PID.TID 0000.0001) %MON forcing_fv_del2              =   3.4801447654163E-04
(PID.TID 0000.0001) %MON trAdv_CFL_u_max              =   1.1253928919698E-02
(PID.TID 0000.0001) %MON trAdv_CFL_v_max              =   8.7063477140337E-03
(PID.TID 0000.0001) %MON trAdv_CFL_w_max              =   1.2154352894656E-01
(PID.TID 0000.0001) %MON advcfl_uvel_max              =   1.3672716983034E-02
(PID.TID 0000.0001) %MON advcfl_vvel_max              =   6.3217525293618E-03
(PID.TID 0000.0001) %MON advcfl_wvel_max              =   2.0746130230986E-01
(PID.TID 0000.0001) %MON advcfl_W_hf_max              =   1.0808083381936E-01
(PID.TID 0000.0001) %MON pe_b_mean                    =   3.9651395343749E-05
(PID.TID 0000.0001) %MON ke_max                       =   2.1850452912594E-03
(PID.TID 0000.0001) %MON ke_mean                      =   1.0947752154437E-04
(PID.TID 0000.0001) %MON ke_vol                       =   1.3226782436723E+18
(PID.TID 0000.0001) %MON vort_r_min                   =  -2.7552627535857E-07
(PID.TID 0000.0001) %MON vort_r_max                   =   2.9726529731228E-07
(PID.TID 0000.0001) %MON vort_a_mean                  =  -2.5205769328176E-05
(PID.TID 0000.0001) %MON vort_a_sd                    =   7.3402495960100E-05
(PID.TID 0000.0001) %MON vort_p_mean                  =  -3.1758669475238E-05
(PID.TID 0000.0001) %MON vort_p_sd                    =   1.3126433377379E-04
(PID.TID 0000.0001) %MON surfExpan_theta_mean         =   1.5692756042860E-04
(PID.TID 0000.0001) %MON surfExpan_salt_mean          =   1.2943430382628E-05
(PID.TID 0000.0001) // =======================================================
(PID.TID 0000.0001) // End MONITOR dynamic field statistics
(PID.TID 0000.0001) // =======================================================
(PID.TID 0000.0001) // =======================================================
(PID.TID 0000.0001) // Begin MONITOR EXF statistics
(PID.TID 0000.0001) // =======================================================
(PID.TID 0000.0001) %MON exf_tsnumber                 =                     6
(PID.TID 0000.0001) %MON exf_time_sec                 =   2.5920000000000E+05
(PID.TID 0000.0001) %MON exf_ustress_max              =   2.7239743115440E-01
(PID.TID 0000.0001) %MON exf_ustress_min              =  -1.6104081152908E-01
(PID.TID 0000.0001) %MON exf_ustress_mean             =   1.5013446446030E-02
(PID.TID 0000.0001) %MON exf_ustress_sd               =   8.8613172185060E-02
(PID.TID 0000.0001) %MON exf_ustress_del2             =   6.9113462169646E-04
(PID.TID 0000.0001) %MON exf_vstress_max              =   2.1038053232816E-01
(PID.TID 0000.0001) %MON exf_vstress_min              =  -1.8520936970749E-01
(PID.TID 0000.0001) %MON exf_vstress_mean             =  -5.8510171671014E-03
(PID.TID 0000.0001) %MON exf_vstress_sd               =   4.4763585836625E-02
(PID.TID 0000.0001) %MON exf_vstress_del2             =   4.6385127652482E-04
(PID.TID 0000.0001) %MON exf_hflux_max                =   4.2893393239667E+02
(PID.TID 0000.0001) %MON exf_hflux_min                =  -1.8567070671820E+02
(PID.TID 0000.0001) %MON exf_hflux_mean               =  -1.6663880305355E+01
(PID.TID 0000.0001) %MON exf_hflux_sd                 =   1.1223313739475E+02
(PID.TID 0000.0001) %MON exf_hflux_del2               =   1.1776175571006E+00
(PID.TID 0000.0001) %MON exf_climsst_max              =   2.9515028307515E+01
(PID.TID 0000.0001) %MON exf_climsst_min              =  -1.9000000000000E+00
(PID.TID 0000.0001) %MON exf_climsst_mean             =   1.8387969152218E+01
(PID.TID 0000.0001) %MON exf_climsst_sd               =   9.2015685950123E+00
(PID.TID 0000.0001) %MON exf_climsst_del2             =   2.4219754918499E-02
(PID.TID 0000.0001) %MON exf_climsss_max              =   3.7456003742833E+01
(PID.TID 0000.0001) %MON exf_climsss_min              =   2.9679108127471E+01
(PID.TID 0000.0001) %MON exf_climsss_mean             =   3.4847367209651E+01
(PID.TID 0000.0001) %MON exf_climsss_sd               =   9.6636859772443E-01
(PID.TID 0000.0001) %MON exf_climsss_del2             =   7.0349356645322E-03
(PID.TID 0000.0001) // =======================================================
(PID.TID 0000.0001) // End MONITOR EXF statistics
(PID.TID 0000.0001) // =======================================================
 cg2d: Sum(rhs),rhsMax =  -4.99600361081320E-14  7.14243599153802E+00
(PID.TID 0000.0001)      cg2d_init_res =   1.55876199121154E+00
(PID.TID 0000.0001)      cg2d_iters(min,last) =      -1      26
(PID.TID 0000.0001)      cg2d_last_res =   2.52069677615918E-14
(PID.TID 0000.0001) // =======================================================
(PID.TID 0000.0001) // Begin MONITOR dynamic field statistics
(PID.TID 0000.0001) // =======================================================
(PID.TID 0000.0001) %MON time_tsnumber                =                     7
(PID.TID 0000.0001) %MON time_secondsf                =   3.0240000000000E+05
(PID.TID 0000.0001) %MON dynstat_eta_max              =   8.1796008891401E-01
(PID.TID 0000.0001) %MON dynstat_eta_min              =  -6.7400077955006E-01
(PID.TID 0000.0001) %MON dynstat_eta_mean             =   4.4376158414777E-17
(PID.TID 0000.0001) %MON dynstat_eta_sd               =   2.0163010732313E-01
(PID.TID 0000.0001) %MON dynstat_eta_del2             =   2.6321618326268E-03
(PID.TID 0000.0001) %MON dynstat_uvel_max             =   7.5733231759611E-02
(PID.TID 0000.0001) %MON dynstat_uvel_min             =  -7.2791668094672E-02
(PID.TID 0000.0001) %MON dynstat_uvel_mean            =  -5.0270467408806E-03
(PID.TID 0000.0001) %MON dynstat_uvel_sd              =   7.5735992595014E-03
(PID.TID 0000.0001) %MON dynstat_uvel_del2            =   7.3399570231258E-05
(PID.TID 0000.0001) %MON dynstat_vvel_max             =   7.3645516990192E-02
(PID.TID 0000.0001) %MON dynstat_vvel_min             =  -6.5730228411614E-02
(PID.TID 0000.0001) %MON dynstat_vvel_mean            =   4.5446985990932E-03
(PID.TID 0000.0001) %MON dynstat_vvel_sd              =   1.3820939972968E-02
(PID.TID 0000.0001) %MON dynstat_vvel_del2            =   9.3997063608876E-05
(PID.TID 0000.0001) %MON dynstat_wvel_max             =   2.5779566778365E-04
(PID.TID 0000.0001) %MON dynstat_wvel_min             =  -2.6860876235709E-04
(PID.TID 0000.0001) %MON dynstat_wvel_mean            =   8.9252154323390E-22
(PID.TID 0000.0001) %MON dynstat_wvel_sd              =   3.2630791668706E-05
(PID.TID 0000.0001) %MON dynstat_wvel_del2            =   3.3958132494968E-07
(PID.TID 0000.0001) %MON dynstat_theta_max            =   2.9714371049330E+01
(PID.TID 0000.0001) %MON dynstat_theta_min            =  -2.0000296041356E+00
(PID.TID 0000.0001) %MON dynstat_theta_mean           =   3.6112523454260E+00
(PID.TID 0000.0001) %MON dynstat_theta_sd             =   4.3992457614237E+00
(PID.TID 0000.0001) %MON dynstat_theta_del2           =   5.3135557584413E-03
(PID.TID 0000.0001) %MON dynstat_salt_max             =   3.7446198831492E+01
(PID.TID 0000.0001) %MON dynstat_salt_min             =   2.9772812763492E+01
(PID.TID 0000.0001) %MON dynstat_salt_mean            =   3.4717292732048E+01
(PID.TID 0000.0001) %MON dynstat_salt_sd              =   2.9616417425610E-01
(PID.TID 0000.0001) %MON dynstat_salt_del2            =   1.0117867955079E-03
(PID.TID 0000.0001) %MON forcing_qnet_max             =   4.2893393239667E+02
(PID.TID 0000.0001) %MON forcing_qnet_min             =  -1.8567070671820E+02
(PID.TID 0000.0001) %MON forcing_qnet_mean            =  -1.6663880305355E+01
(PID.TID 0000.0001) %MON forcing_qnet_sd              =   1.1223313739475E+02
(PID.TID 0000.0001) %MON forcing_qnet_del2            =   9.9430147063573E-01
(PID.TID 0000.0001) %MON forcing_qsw_max              =   0.0000000000000E+00
(PID.TID 0000.0001) %MON forcing_qsw_min              =   0.0000000000000E+00
(PID.TID 0000.0001) %MON forcing_qsw_mean             =   0.0000000000000E+00
(PID.TID 0000.0001) %MON forcing_qsw_sd               =   0.0000000000000E+00
(PID.TID 0000.0001) %MON forcing_qsw_del2             =   0.0000000000000E+00
(PID.TID 0000.0001) %MON forcing_empmr_max            =   0.0000000000000E+00
(PID.TID 0000.0001) %MON forcing_empmr_min            =   0.0000000000000E+00
(PID.TID 0000.0001) %MON forcing_empmr_mean           =   0.0000000000000E+00
(PID.TID 0000.0001) %MON forcing_empmr_sd             =   0.0000000000000E+00
(PID.TID 0000.0001) %MON forcing_empmr_del2           =   0.0000000000000E+00
(PID.TID 0000.0001) %MON forcing_fu_max               =   2.7095980822079E-01
(PID.TID 0000.0001) %MON forcing_fu_min               =  -1.5956480428576E-01
(PID.TID 0000.0001) %MON forcing_fu_mean              =   1.6035219180276E-02
(PID.TID 0000.0001) %MON forcing_fu_sd                =   8.9825788836729E-02
(PID.TID 0000.0001) %MON forcing_fu_del2              =   6.4924410448355E-04
(PID.TID 0000.0001) %MON forcing_fv_max               =   2.0296572268971E-01
(PID.TID 0000.0001) %MON forcing_fv_min               =  -1.5091863430796E-01
(PID.TID 0000.0001) %MON forcing_fv_mean              =  -5.6490179147523E-03
(PID.TID 0000.0001) %MON forcing_fv_sd                =   4.3347612081314E-02
(PID.TID 0000.0001) %MON forcing_fv_del2              =   3.4842051422912E-04
(PID.TID 0000.0001) %MON trAdv_CFL_u_max              =   1.3675494009642E-02
(PID.TID 0000.0001) %MON trAdv_CFL_v_max              =   1.0505685341387E-02
(PID.TID 0000.0001) %MON trAdv_CFL_w_max              =   1.0373065115493E-01
(PID.TID 0000.0001) %MON advcfl_uvel_max              =   1.5755261626612E-02
(PID.TID 0000.0001) %MON advcfl_vvel_max              =   7.1540714095522E-03
(PID.TID 0000.0001) %MON advcfl_wvel_max              =   1.7417286108130E-01
(PID.TID 0000.0001) %MON advcfl_W_hf_max              =   8.6668136060357E-02
(PID.TID 0000.0001) %MON pe_b_mean                    =   5.2022589105306E-05
(PID.TID 0000.0001) %MON ke_max                       =   2.9313384992331E-03
(PID.TID 0000.0001) %MON ke_mean                      =   1.3256947443554E-04
(PID.TID 0000.0001) %MON ke_vol                       =   1.3226782436723E+18
(PID.TID 0000.0001) %MON vort_r_min                   =  -2.9932442409355E-07
(PID.TID 0000.0001) %MON vort_r_max                   =   3.2156423178797E-07
(PID.TID 0000.0001) %MON vort_a_mean                  =  -2.5205769374687E-05
(PID.TID 0000.0001) %MON vort_a_sd                    =   7.3402321551960E-05
(PID.TID 0000.0001) %MON vort_p_mean                  =  -3.1758669533841E-05
(PID.TID 0000.0001) %MON vort_p_sd                    =   1.3126379177250E-04
(PID.TID 0000.0001) %MON surfExpan_theta_mean         =   1.6175479964087E-04
(PID.TID 0000.0001) %MON surfExpan_salt_mean          =   1.3177064435577E-05
(PID.TID 0000.0001) // =======================================================
(PID.TID 0000.0001) // End MONITOR dynamic field statistics
(PID.TID 0000.0001) // =======================================================
(PID.TID 0000.0001) // =======================================================
(PID.TID 0000.0001) // Begin MONITOR EXF statistics
(PID.TID 0000.0001) // =======================================================
(PID.TID 0000.0001) %MON exf_tsnumber                 =                     7
(PID.TID 0000.0001) %MON exf_time_sec                 =   3.0240000000000E+05
(PID.TID 0000.0001) %MON exf_ustress_max              =   2.7198200456558E-01
(PID.TID 0000.0001) %MON exf_ustress_min              =  -1.6143440190823E-01
(PID.TID 0000.0001) %MON exf_ustress_mean             =   1.5010557634397E-02
(PID.TID 0000.0001) %MON exf_ustress_sd               =   8.8618845118075E-02
(PID.TID 0000.0001) %MON exf_ustress_del2             =   6.9194883040748E-04
(PID.TID 0000.0001) %MON exf_vstress_max              =   2.1129016385924E-01
(PID.TID 0000.0001) %MON exf_vstress_min              =  -1.8492647092189E-01
(PID.TID 0000.0001) %MON exf_vstress_mean             =  -5.8200126263586E-03
(PID.TID 0000.0001) %MON exf_vstress_sd               =   4.4824413161982E-02
(PID.TID 0000.0001) %MON exf_vstress_del2             =   4.6407124196284E-04
(PID.TID 0000.0001) %MON exf_hflux_max                =   4.2944111977854E+02
(PID.TID 0000.0001) %MON exf_hflux_min                =  -1.8544466030982E+02
(PID.TID 0000.0001) %MON exf_hflux_mean               =  -1.6657826133183E+01
(PID.TID 0000.0001) %MON exf_hflux_sd                 =   1.1213131789607E+02
(PID.TID 0000.0001) %MON exf_hflux_del2               =   1.1777916973255E+00
(PID.TID 0000.0001) %MON exf_climsst_max              =   2.9507260045698E+01
(PID.TID 0000.0001) %MON exf_climsst_min              =  -1.9000000000000E+00
(PID.TID 0000.0001) %MON exf_climsst_mean             =   1.8391828408710E+01
(PID.TID 0000.0001) %MON exf_climsst_sd               =   9.1999913480886E+00
(PID.TID 0000.0001) %MON exf_climsst_del2             =   2.4237623218373E-02
(PID.TID 0000.0001) %MON exf_climsss_max              =   3.7456788709087E+01
(PID.TID 0000.0001) %MON exf_climsss_min              =   2.9682054581181E+01
(PID.TID 0000.0001) %MON exf_climsss_mean             =   3.4847469532274E+01
(PID.TID 0000.0001) %MON exf_climsss_sd               =   9.6600027689088E-01
(PID.TID 0000.0001) %MON exf_climsss_del2             =   7.0447947077263E-03
(PID.TID 0000.0001) // =======================================================
(PID.TID 0000.0001) // End MONITOR EXF statistics
(PID.TID 0000.0001) // =======================================================
 cg2d: Sum(rhs),rhsMax =  -4.26325641456060E-14  7.72291365607133E+00
(PID.TID 0000.0001)      cg2d_init_res =   1.38193299224474E+00
(PID.TID 0000.0001)      cg2d_iters(min,last) =      -1      26
(PID.TID 0000.0001)      cg2d_last_res =   2.25062033038493E-14
(PID.TID 0000.0001) // =======================================================
(PID.TID 0000.0001) // Begin MONITOR dynamic field statistics
(PID.TID 0000.0001) // =======================================================
(PID.TID 0000.0001) %MON time_tsnumber                =                     8
(PID.TID 0000.0001) %MON time_secondsf                =   3.4560000000000E+05
(PID.TID 0000.0001) %MON dynstat_eta_max              =   8.8792655385350E-01
(PID.TID 0000.0001) %MON dynstat_eta_min              =  -7.0258977686040E-01
(PID.TID 0000.0001) %MON dynstat_eta_mean             =   6.5658601736150E-17
(PID.TID 0000.0001) %MON dynstat_eta_sd               =   2.2602862760441E-01
(PID.TID 0000.0001) %MON dynstat_eta_del2             =   2.5409774232031E-03
(PID.TID 0000.0001) %MON dynstat_uvel_max             =   8.5496927453717E-02
(PID.TID 0000.0001) %MON dynstat_uvel_min             =  -9.0968231282521E-02
(PID.TID 0000.0001) %MON dynstat_uvel_mean            =  -5.9376248649071E-03
(PID.TID 0000.0001) %MON dynstat_uvel_sd              =   8.8087123611174E-03
(PID.TID 0000.0001) %MON dynstat_uvel_del2            =   7.9958090707749E-05
(PID.TID 0000.0001) %MON dynstat_vvel_max             =   7.9110028403951E-02
(PID.TID 0000.0001) %MON dynstat_vvel_min             =  -7.4403473350457E-02
(PID.TID 0000.0001) %MON dynstat_vvel_mean            =   4.7493119303972E-03
(PID.TID 0000.0001) %MON dynstat_vvel_sd              =   1.4380412812588E-02
(PID.TID 0000.0001) %MON dynstat_vvel_del2            =   1.0112793738342E-04
(PID.TID 0000.0001) %MON dynstat_wvel_max             =   2.6701898114157E-04
(PID.TID 0000.0001) %MON dynstat_wvel_min             =  -2.8089686612740E-04
(PID.TID 0000.0001) %MON dynstat_wvel_mean            =   2.1138668129224E-22
(PID.TID 0000.0001) %MON dynstat_wvel_sd              =   3.3783328054735E-05
(PID.TID 0000.0001) %MON dynstat_wvel_del2            =   3.6169030363118E-07
(PID.TID 0000.0001) %MON dynstat_theta_max            =   2.9701258538497E+01
(PID.TID 0000.0001) %MON dynstat_theta_min            =  -2.0317467000366E+00
(PID.TID 0000.0001) %MON dynstat_theta_mean           =   3.6094317839801E+00
(PID.TID 0000.0001) %MON dynstat_theta_sd             =   4.3952198050720E+00
(PID.TID 0000.0001) %MON dynstat_theta_del2           =   5.2825669971528E-03
(PID.TID 0000.0001) %MON dynstat_salt_max             =   3.7443065568935E+01
(PID.TID 0000.0001) %MON dynstat_salt_min             =   2.9775856626500E+01
(PID.TID 0000.0001) %MON dynstat_salt_mean            =   3.4717142629584E+01
(PID.TID 0000.0001) %MON dynstat_salt_sd              =   2.9616514631683E-01
(PID.TID 0000.0001) %MON dynstat_salt_del2            =   1.0102777023514E-03
(PID.TID 0000.0001) %MON forcing_qnet_max             =   4.2944111977854E+02
(PID.TID 0000.0001) %MON forcing_qnet_min             =  -1.8544466030982E+02
(PID.TID 0000.0001) %MON forcing_qnet_mean            =  -1.6657826133183E+01
(PID.TID 0000.0001) %MON forcing_qnet_sd              =   1.1213131789607E+02
(PID.TID 0000.0001) %MON forcing_qnet_del2            =   9.9502992408153E-01
(PID.TID 0000.0001) %MON forcing_qsw_max              =   0.0000000000000E+00
(PID.TID 0000.0001) %MON forcing_qsw_min              =   0.0000000000000E+00
(PID.TID 0000.0001) %MON forcing_qsw_mean             =   0.0000000000000E+00
(PID.TID 0000.0001) %MON forcing_qsw_sd               =   0.0000000000000E+00
(PID.TID 0000.0001) %MON forcing_qsw_del2             =   0.0000000000000E+00
(PID.TID 0000.0001) %MON forcing_empmr_max            =   0.0000000000000E+00
(PID.TID 0000.0001) %MON forcing_empmr_min            =   0.0000000000000E+00
(PID.TID 0000.0001) %MON forcing_empmr_mean           =   0.0000000000000E+00
(PID.TID 0000.0001) %MON forcing_empmr_sd             =   0.0000000000000E+00
(PID.TID 0000.0001) %MON forcing_empmr_del2           =   0.0000000000000E+00
(PID.TID 0000.0001) %MON forcing_fu_max               =   2.7077176157505E-01
(PID.TID 0000.0001) %MON forcing_fu_min               =  -1.5986756235361E-01
(PID.TID 0000.0001) %MON forcing_fu_mean              =   1.6031254169549E-02
(PID.TID 0000.0001) %MON forcing_fu_sd                =   8.9830008899856E-02
(PID.TID 0000.0001) %MON forcing_fu_del2              =   6.5028463924194E-04
(PID.TID 0000.0001) %MON forcing_fv_max               =   2.0365151282280E-01
(PID.TID 0000.0001) %MON forcing_fv_min               =  -1.5114407361515E-01
(PID.TID 0000.0001) %MON forcing_fv_mean              =  -5.6156830861121E-03
(PID.TID 0000.0001) %MON forcing_fv_sd                =   4.3412777965500E-02
(PID.TID 0000.0001) %MON forcing_fv_del2              =   3.4890718937407E-04
(PID.TID 0000.0001) %MON trAdv_CFL_u_max              =   1.5758461632932E-02
(PID.TID 0000.0001) %MON trAdv_CFL_v_max              =   1.1978733303782E-02
(PID.TID 0000.0001) %MON trAdv_CFL_w_max              =   8.6668136060357E-02
(PID.TID 0000.0001) %MON advcfl_uvel_max              =   1.6701165779578E-02
(PID.TID 0000.0001) %MON advcfl_vvel_max              =   7.6849048732857E-03
(PID.TID 0000.0001) %MON advcfl_wvel_max              =   1.8625486461305E-01
(PID.TID 0000.0001) %MON advcfl_W_hf_max              =   9.4009783201394E-02
(PID.TID 0000.0001) %MON pe_b_mean                    =   6.5374457260192E-05
(PID.TID 0000.0001) %MON ke_max                       =   3.7514769711189E-03
(PID.TID 0000.0001) %MON ke_mean                      =   1.5423519274630E-04
(PID.TID 0000.0001) %MON ke_vol                       =   1.3226782436723E+18
(PID.TID 0000.0001) %MON vort_r_min                   =  -3.1494569609912E-07
(PID.TID 0000.0001) %MON vort_r_max                   =   3.6410486047148E-07
(PID.TID 0000.0001) %MON vort_a_mean                  =  -2.5205769446108E-05
(PID.TID 0000.0001) %MON vort_a_sd                    =   7.3402149385451E-05
(PID.TID 0000.0001) %MON vort_p_mean                  =  -3.1758669623830E-05
(PID.TID 0000.0001) %MON vort_p_sd                    =   1.3126322243080E-04
(PID.TID 0000.0001) %MON surfExpan_theta_mean         =   1.6227994247026E-04
(PID.TID 0000.0001) %MON surfExpan_salt_mean          =   1.3014083010119E-05
(PID.TID 0000.0001) // =======================================================
(PID.TID 0000.0001) // End MONITOR dynamic field statistics
(PID.TID 0000.0001) // =======================================================
(PID.TID 0000.0001) // =======================================================
(PID.TID 0000.0001) // Begin MONITOR EXF statistics
(PID.TID 0000.0001) // =======================================================
(PID.TID 0000.0001) %MON exf_tsnumber                 =                     8
(PID.TID 0000.0001) %MON exf_time_sec                 =   3.4560000000000E+05
(PID.TID 0000.0001) %MON exf_ustress_max              =   2.7156657797675E-01
(PID.TID 0000.0001) %MON exf_ustress_min              =  -1.6182799228737E-01
(PID.TID 0000.0001) %MON exf_ustress_mean             =   1.5007668822763E-02
(PID.TID 0000.0001) %MON exf_ustress_sd               =   8.8627021095280E-02
(PID.TID 0000.0001) %MON exf_ustress_del2             =   6.9288260330560E-04
(PID.TID 0000.0001) %MON exf_vstress_max              =   2.1219979539033E-01
(PID.TID 0000.0001) %MON exf_vstress_min              =  -1.8464357213628E-01
(PID.TID 0000.0001) %MON exf_vstress_mean             =  -5.7890080856158E-03
(PID.TID 0000.0001) %MON exf_vstress_sd               =   4.4888672753379E-02
(PID.TID 0000.0001) %MON exf_vstress_del2             =   4.6441002637548E-04
(PID.TID 0000.0001) %MON exf_hflux_max                =   4.2994830716041E+02
(PID.TID 0000.0001) %MON exf_hflux_min                =  -1.8521861390145E+02
(PID.TID 0000.0001) %MON exf_hflux_mean               =  -1.6651771961010E+01
(PID.TID 0000.0001) %MON exf_hflux_sd                 =   1.1203010344261E+02
(PID.TID 0000.0001) %MON exf_hflux_del2               =   1.1780022115880E+00
(PID.TID 0000.0001) %MON exf_climsst_max              =   2.9499491783880E+01
(PID.TID 0000.0001) %MON exf_climsst_min              =  -1.9000000000000E+00
(PID.TID 0000.0001) %MON exf_climsst_mean             =   1.8395687883583E+01
(PID.TID 0000.0001) %MON exf_climsst_sd               =   9.1984739698203E+00
(PID.TID 0000.0001) %MON exf_climsst_del2             =   2.4264589313133E-02
(PID.TID 0000.0001) %MON exf_climsss_max              =   3.7457573675340E+01
(PID.TID 0000.0001) %MON exf_climsss_min              =   2.9685001034890E+01
(PID.TID 0000.0001) %MON exf_climsss_mean             =   3.4847571854896E+01
(PID.TID 0000.0001) %MON exf_climsss_sd               =   9.6565280261437E-01
(PID.TID 0000.0001) %MON exf_climsss_del2             =   7.0574334694174E-03
(PID.TID 0000.0001) // =======================================================
(PID.TID 0000.0001) // End MONITOR EXF statistics
(PID.TID 0000.0001) // =======================================================
 cg2d: Sum(rhs),rhsMax =  -7.90478793533111E-14  8.03387068208590E+00
(PID.TID 0000.0001)      cg2d_init_res =   1.27491895664762E+00
(PID.TID 0000.0001)      cg2d_iters(min,last) =      -1      25
(PID.TID 0000.0001)      cg2d_last_res =   9.25700616520291E-14
(PID.TID 0000.0001) // =======================================================
(PID.TID 0000.0001) // Begin MONITOR dynamic field statistics
(PID.TID 0000.0001) // =======================================================
(PID.TID 0000.0001) %MON time_tsnumber                =                     9
(PID.TID 0000.0001) %MON time_secondsf                =   3.8880000000000E+05
(PID.TID 0000.0001) %MON dynstat_eta_max              =   9.2789787246412E-01
(PID.TID 0000.0001) %MON dynstat_eta_min              =  -7.8230383597799E-01
(PID.TID 0000.0001) %MON dynstat_eta_mean             =   1.5644859930924E-16
(PID.TID 0000.0001) %MON dynstat_eta_sd               =   2.4897754053015E-01
(PID.TID 0000.0001) %MON dynstat_eta_del2             =   2.4651205426938E-03
(PID.TID 0000.0001) %MON dynstat_uvel_max             =   9.4571872966211E-02
(PID.TID 0000.0001) %MON dynstat_uvel_min             =  -1.0650562898699E-01
(PID.TID 0000.0001) %MON dynstat_uvel_mean            =  -6.8056901392599E-03
(PID.TID 0000.0001) %MON dynstat_uvel_sd              =   1.0018411061909E-02
(PID.TID 0000.0001) %MON dynstat_uvel_del2            =   8.5736513139562E-05
(PID.TID 0000.0001) %MON dynstat_vvel_max             =   8.3622182914372E-02
(PID.TID 0000.0001) %MON dynstat_vvel_min             =  -8.1931039543840E-02
(PID.TID 0000.0001) %MON dynstat_vvel_mean            =   4.8341513686608E-03
(PID.TID 0000.0001) %MON dynstat_vvel_sd              =   1.4686547870328E-02
(PID.TID 0000.0001) %MON dynstat_vvel_del2            =   1.0667601833154E-04
(PID.TID 0000.0001) %MON dynstat_wvel_max             =   2.6990204271131E-04
(PID.TID 0000.0001) %MON dynstat_wvel_min             =  -2.8783763687168E-04
(PID.TID 0000.0001) %MON dynstat_wvel_mean            =  -1.4092445419483E-22
(PID.TID 0000.0001) %MON dynstat_wvel_sd              =   3.4549241603867E-05
(PID.TID 0000.0001) %MON dynstat_wvel_del2            =   3.7548501955659E-07
(PID.TID 0000.0001) %MON dynstat_theta_max            =   2.9669082897069E+01
(PID.TID 0000.0001) %MON dynstat_theta_min            =  -2.0622657261404E+00
(PID.TID 0000.0001) %MON dynstat_theta_mean           =   3.6076349907080E+00
(PID.TID 0000.0001) %MON dynstat_theta_sd             =   4.3911172400540E+00
(PID.TID 0000.0001) %MON dynstat_theta_del2           =   5.2489457673031E-03
(PID.TID 0000.0001) %MON dynstat_salt_max             =   3.7440304257189E+01
(PID.TID 0000.0001) %MON dynstat_salt_min             =   2.9778573221473E+01
(PID.TID 0000.0001) %MON dynstat_salt_mean            =   3.4716997060646E+01
(PID.TID 0000.0001) %MON dynstat_salt_sd              =   2.9615862835640E-01
(PID.TID 0000.0001) %MON dynstat_salt_del2            =   1.0088083345020E-03
(PID.TID 0000.0001) %MON forcing_qnet_max             =   4.2994830716041E+02
(PID.TID 0000.0001) %MON forcing_qnet_min             =  -1.8521861390145E+02
(PID.TID 0000.0001) %MON forcing_qnet_mean            =  -1.6651771961010E+01
(PID.TID 0000.0001) %MON forcing_qnet_sd              =   1.1203010344261E+02
(PID.TID 0000.0001) %MON forcing_qnet_del2            =   9.9579948741711E-01
(PID.TID 0000.0001) %MON forcing_qsw_max              =   0.0000000000000E+00
(PID.TID 0000.0001) %MON forcing_qsw_min              =   0.0000000000000E+00
(PID.TID 0000.0001) %MON forcing_qsw_mean             =   0.0000000000000E+00
(PID.TID 0000.0001) %MON forcing_qsw_sd               =   0.0000000000000E+00
(PID.TID 0000.0001) %MON forcing_qsw_del2             =   0.0000000000000E+00
(PID.TID 0000.0001) %MON forcing_empmr_max            =   0.0000000000000E+00
(PID.TID 0000.0001) %MON forcing_empmr_min            =   0.0000000000000E+00
(PID.TID 0000.0001) %MON forcing_empmr_mean           =   0.0000000000000E+00
(PID.TID 0000.0001) %MON forcing_empmr_sd             =   0.0000000000000E+00
(PID.TID 0000.0001) %MON forcing_empmr_del2           =   0.0000000000000E+00
(PID.TID 0000.0001) %MON forcing_fu_max               =   2.7058371492932E-01
(PID.TID 0000.0001) %MON forcing_fu_min               =  -1.6017032042146E-01
(PID.TID 0000.0001) %MON forcing_fu_mean              =   1.6027289158822E-02
(PID.TID 0000.0001) %MON forcing_fu_sd                =   8.9836693313870E-02
(PID.TID 0000.0001) %MON forcing_fu_del2              =   6.5143177225281E-04
(PID.TID 0000.0001) %MON forcing_fv_max               =   2.0433730295589E-01
(PID.TID 0000.0001) %MON forcing_fv_min               =  -1.5136951292234E-01
(PID.TID 0000.0001) %MON forcing_fv_mean              =  -5.5823482574718E-03
(PID.TID 0000.0001) %MON forcing_fv_sd                =   4.3481134415961E-02
(PID.TID 0000.0001) %MON forcing_fv_del2              =   3.4947416509125E-04
(PID.TID 0000.0001) %MON trAdv_CFL_u_max              =   1.6704557905797E-02
(PID.TID 0000.0001) %MON trAdv_CFL_v_max              =   1.3055624838411E-02
(PID.TID 0000.0001) %MON trAdv_CFL_w_max              =   9.4009783201394E-02
(PID.TID 0000.0001) %MON advcfl_uvel_max              =   1.6413400695281E-02
(PID.TID 0000.0001) %MON advcfl_vvel_max              =   8.1232245008441E-03
(PID.TID 0000.0001) %MON advcfl_wvel_max              =   1.9039063870886E-01
(PID.TID 0000.0001) %MON advcfl_W_hf_max              =   9.8713778793038E-02
(PID.TID 0000.0001) %MON pe_b_mean                    =   7.9323440981330E-05
(PID.TID 0000.0001) %MON ke_max                       =   4.6100533766175E-03
(PID.TID 0000.0001) %MON ke_mean                      =   1.7396783904258E-04
(PID.TID 0000.0001) %MON ke_vol                       =   1.3226782436723E+18
(PID.TID 0000.0001) %MON vort_r_min                   =  -3.2370221768309E-07
(PID.TID 0000.0001) %MON vort_r_max                   =   4.2555132870248E-07
(PID.TID 0000.0001) %MON vort_a_mean                  =  -2.5205769530901E-05
(PID.TID 0000.0001) %MON vort_a_sd                    =   7.3401984401820E-05
(PID.TID 0000.0001) %MON vort_p_mean                  =  -3.1758669730667E-05
(PID.TID 0000.0001) %MON vort_p_sd                    =   1.3126264467269E-04
(PID.TID 0000.0001) %MON surfExpan_theta_mean         =   1.5910486162160E-04
(PID.TID 0000.0001) %MON surfExpan_salt_mean          =   1.2505231744378E-05
(PID.TID 0000.0001) // =======================================================
(PID.TID 0000.0001) // End MONITOR dynamic field statistics
(PID.TID 0000.0001) // =======================================================
(PID.TID 0000.0001) // =======================================================
(PID.TID 0000.0001) // Begin MONITOR EXF statistics
(PID.TID 0000.0001) // =======================================================
(PID.TID 0000.0001) %MON exf_tsnumber                 =                     9
(PID.TID 0000.0001) %MON exf_time_sec                 =   3.8880000000000E+05
(PID.TID 0000.0001) %MON exf_ustress_max              =   2.7115115138792E-01
(PID.TID 0000.0001) %MON exf_ustress_min              =  -1.6222158266652E-01
(PID.TID 0000.0001) %MON exf_ustress_mean             =   1.5004780011130E-02
(PID.TID 0000.0001) %MON exf_ustress_sd               =   8.8637699424028E-02
(PID.TID 0000.0001) %MON exf_ustress_del2             =   6.9393545772739E-04
(PID.TID 0000.0001) %MON exf_vstress_max              =   2.1310942692141E-01
(PID.TID 0000.0001) %MON exf_vstress_min              =  -1.8436067335067E-01
(PID.TID 0000.0001) %MON exf_vstress_mean             =  -5.7580035448731E-03
(PID.TID 0000.0001) %MON exf_vstress_sd               =   4.4956349892810E-02
(PID.TID 0000.0001) %MON exf_vstress_del2             =   4.6486736998536E-04
(PID.TID 0000.0001) %MON exf_hflux_max                =   4.3045549454228E+02
(PID.TID 0000.0001) %MON exf_hflux_min                =  -1.8499256749307E+02
(PID.TID 0000.0001) %MON exf_hflux_mean               =  -1.6645717788838E+01
(PID.TID 0000.0001) %MON exf_hflux_sd                 =   1.1192949567575E+02
(PID.TID 0000.0001) %MON exf_hflux_del2               =   1.1782490803913E+00
(PID.TID 0000.0001) %MON exf_climsst_max              =   2.9491723522063E+01
(PID.TID 0000.0001) %MON exf_climsst_min              =  -1.9000000000000E+00
(PID.TID 0000.0001) %MON exf_climsst_mean             =   1.8399550721214E+01
(PID.TID 0000.0001) %MON exf_climsst_sd               =   9.1970095444163E+00
(PID.TID 0000.0001) %MON exf_climsst_del2             =   2.4300802812195E-02
(PID.TID 0000.0001) %MON exf_climsss_max              =   3.7458358641594E+01
(PID.TID 0000.0001) %MON exf_climsss_min              =   2.9687947488600E+01
(PID.TID 0000.0001) %MON exf_climsss_mean             =   3.4847674177518E+01
(PID.TID 0000.0001) %MON exf_climsss_sd               =   9.6532619740638E-01
(PID.TID 0000.0001) %MON exf_climsss_del2             =   7.0728370480198E-03
(PID.TID 0000.0001) // =======================================================
(PID.TID 0000.0001) // End MONITOR EXF statistics
(PID.TID 0000.0001) // =======================================================
 cg2d: Sum(rhs),rhsMax =  -3.04645197957143E-13  8.11896831221745E+00
(PID.TID 0000.0001)      cg2d_init_res =   1.21243316691704E+00
(PID.TID 0000.0001)      cg2d_iters(min,last) =      -1      25
(PID.TID 0000.0001)      cg2d_last_res =   8.61904616318740E-14
(PID.TID 0000.0001) // =======================================================
(PID.TID 0000.0001) // Begin MONITOR dynamic field statistics
(PID.TID 0000.0001) // =======================================================
(PID.TID 0000.0001) %MON time_tsnumber                =                    10
(PID.TID 0000.0001) %MON time_secondsf                =   4.3200000000000E+05
(PID.TID 0000.0001) %MON dynstat_eta_max              =   9.4265531171294E-01
(PID.TID 0000.0001) %MON dynstat_eta_min              =  -8.3393844235115E-01
(PID.TID 0000.0001) %MON dynstat_eta_mean             =   2.5425727499895E-16
(PID.TID 0000.0001) %MON dynstat_eta_sd               =   2.7022208921814E-01
(PID.TID 0000.0001) %MON dynstat_eta_del2             =   2.3950811573698E-03
(PID.TID 0000.0001) %MON dynstat_uvel_max             =   1.0300131212373E-01
(PID.TID 0000.0001) %MON dynstat_uvel_min             =  -1.1831065510468E-01
(PID.TID 0000.0001) %MON dynstat_uvel_mean            =  -7.6047417313292E-03
(PID.TID 0000.0001) %MON dynstat_uvel_sd              =   1.1175997847039E-02
(PID.TID 0000.0001) %MON dynstat_uvel_del2            =   9.0807961602088E-05
(PID.TID 0000.0001) %MON dynstat_vvel_max             =   9.2763230988020E-02
(PID.TID 0000.0001) %MON dynstat_vvel_min             =  -8.8164703792027E-02
(PID.TID 0000.0001) %MON dynstat_vvel_mean            =   4.8077159765747E-03
(PID.TID 0000.0001) %MON dynstat_vvel_sd              =   1.4779388303534E-02
(PID.TID 0000.0001) %MON dynstat_vvel_del2            =   1.1083233004078E-04
(PID.TID 0000.0001) %MON dynstat_wvel_max             =   2.6590811628920E-04
(PID.TID 0000.0001) %MON dynstat_wvel_min             =  -2.9585400136367E-04
(PID.TID 0000.0001) %MON dynstat_wvel_mean            =   1.0099585883963E-21
(PID.TID 0000.0001) %MON dynstat_wvel_sd              =   3.4895005682906E-05
(PID.TID 0000.0001) %MON dynstat_wvel_del2            =   3.8170192568949E-07
(PID.TID 0000.0001) %MON dynstat_theta_max            =   2.9627372895710E+01
(PID.TID 0000.0001) %MON dynstat_theta_min            =  -2.0895100798726E+00
(PID.TID 0000.0001) %MON dynstat_theta_mean           =   3.6058995604514E+00
(PID.TID 0000.0001) %MON dynstat_theta_sd             =   4.3870055048523E+00
(PID.TID 0000.0001) %MON dynstat_theta_del2           =   5.2153535018234E-03
(PID.TID 0000.0001) %MON dynstat_salt_max             =   3.7437864015705E+01
(PID.TID 0000.0001) %MON dynstat_salt_min             =   2.9780894890066E+01
(PID.TID 0000.0001) %MON dynstat_salt_mean            =   3.4716859577764E+01
(PID.TID 0000.0001) %MON dynstat_salt_sd              =   2.9614565000130E-01
(PID.TID 0000.0001) %MON dynstat_salt_del2            =   1.0074131526581E-03
(PID.TID 0000.0001) %MON forcing_qnet_max             =   4.3045549454228E+02
(PID.TID 0000.0001) %MON forcing_qnet_min             =  -1.8499256749307E+02
(PID.TID 0000.0001) %MON forcing_qnet_mean            =  -1.6645717788838E+01
(PID.TID 0000.0001) %MON forcing_qnet_sd              =   1.1192949567575E+02
(PID.TID 0000.0001) %MON forcing_qnet_del2            =   9.9661006540964E-01
(PID.TID 0000.0001) %MON forcing_qsw_max              =   0.0000000000000E+00
(PID.TID 0000.0001) %MON forcing_qsw_min              =   0.0000000000000E+00
(PID.TID 0000.0001) %MON forcing_qsw_mean             =   0.0000000000000E+00
(PID.TID 0000.0001) %MON forcing_qsw_sd               =   0.0000000000000E+00
(PID.TID 0000.0001) %MON forcing_qsw_del2             =   0.0000000000000E+00
(PID.TID 0000.0001) %MON forcing_empmr_max            =   0.0000000000000E+00
(PID.TID 0000.0001) %MON forcing_empmr_min            =   0.0000000000000E+00
(PID.TID 0000.0001) %MON forcing_empmr_mean           =   0.0000000000000E+00
(PID.TID 0000.0001) %MON forcing_empmr_sd             =   0.0000000000000E+00
(PID.TID 0000.0001) %MON forcing_empmr_del2           =   0.0000000000000E+00
(PID.TID 0000.0001) %MON forcing_fu_max               =   2.7039566828359E-01
(PID.TID 0000.0001) %MON forcing_fu_min               =  -1.6047307848930E-01
(PID.TID 0000.0001) %MON forcing_fu_mean              =   1.6023324148095E-02
(PID.TID 0000.0001) %MON forcing_fu_sd                =   8.9845841528738E-02
(PID.TID 0000.0001) %MON forcing_fu_del2              =   6.5268494145790E-04
(PID.TID 0000.0001) %MON forcing_fv_max               =   2.0502309308898E-01
(PID.TID 0000.0001) %MON forcing_fv_min               =  -1.5159495222953E-01
(PID.TID 0000.0001) %MON forcing_fv_mean              =  -5.5490134288316E-03
(PID.TID 0000.0001) %MON forcing_fv_sd                =   4.3552666409801E-02
(PID.TID 0000.0001) %MON forcing_fv_del2              =   3.5012105127173E-04
(PID.TID 0000.0001) %MON trAdv_CFL_u_max              =   1.6416734374353E-02
(PID.TID 0000.0001) %MON trAdv_CFL_v_max              =   1.3688397015289E-02
(PID.TID 0000.0001) %MON trAdv_CFL_w_max              =   9.8713778793038E-02
(PID.TID 0000.0001) %MON advcfl_uvel_max              =   1.5179287691691E-02
(PID.TID 0000.0001) %MON advcfl_vvel_max              =   9.0112040188062E-03
(PID.TID 0000.0001) %MON advcfl_wvel_max              =   1.8547922102572E-01
(PID.TID 0000.0001) %MON advcfl_W_hf_max              =   9.4414613461562E-02
(PID.TID 0000.0001) %MON pe_b_mean                    =   9.3437862517658E-05
(PID.TID 0000.0001) %MON ke_max                       =   5.5004439557167E-03
(PID.TID 0000.0001) %MON ke_mean                      =   1.9145918082103E-04
(PID.TID 0000.0001) %MON ke_vol                       =   1.3226782436723E+18
(PID.TID 0000.0001) %MON vort_r_min                   =  -3.2705199670934E-07
(PID.TID 0000.0001) %MON vort_r_max                   =   4.7774599513752E-07
(PID.TID 0000.0001) %MON vort_a_mean                  =  -2.5205769616255E-05
(PID.TID 0000.0001) %MON vort_a_sd                    =   7.3401831223396E-05
(PID.TID 0000.0001) %MON vort_p_mean                  =  -3.1758669838212E-05
(PID.TID 0000.0001) %MON vort_p_sd                    =   1.3126207924545E-04
(PID.TID 0000.0001) %MON surfExpan_theta_mean         =   1.5285894762419E-04
(PID.TID 0000.0001) %MON surfExpan_salt_mean          =   1.1706779794100E-05
(PID.TID 0000.0001) // =======================================================
(PID.TID 0000.0001) // End MONITOR dynamic field statistics
(PID.TID 0000.0001) // =======================================================
(PID.TID 0000.0001) // =======================================================
(PID.TID 0000.0001) // Begin MONITOR EXF statistics
(PID.TID 0000.0001) // =======================================================
(PID.TID 0000.0001) %MON exf_tsnumber                 =                    10
(PID.TID 0000.0001) %MON exf_time_sec                 =   4.3200000000000E+05
(PID.TID 0000.0001) %MON exf_ustress_max              =   2.7073572479909E-01
(PID.TID 0000.0001) %MON exf_ustress_min              =  -1.6261517304567E-01
(PID.TID 0000.0001) %MON exf_ustress_mean             =   1.5001891199497E-02
(PID.TID 0000.0001) %MON exf_ustress_sd               =   8.8650879200067E-02
(PID.TID 0000.0001) %MON exf_ustress_del2             =   6.9510685256700E-04
(PID.TID 0000.0001) %MON exf_vstress_max              =   2.1401905845250E-01
(PID.TID 0000.0001) %MON exf_vstress_min              =  -1.8407777456507E-01
(PID.TID 0000.0001) %MON exf_vstress_mean             =  -5.7269990041303E-03
(PID.TID 0000.0001) %MON exf_vstress_sd               =   4.5027429170344E-02
(PID.TID 0000.0001) %MON exf_vstress_del2             =   4.6544292330429E-04
(PID.TID 0000.0001) %MON exf_hflux_max                =   4.3096268192414E+02
(PID.TID 0000.0001) %MON exf_hflux_min                =  -1.8476652108469E+02
(PID.TID 0000.0001) %MON exf_hflux_mean               =  -1.6639663616666E+01
(PID.TID 0000.0001) %MON exf_hflux_sd                 =   1.1182949623291E+02
(PID.TID 0000.0001) %MON exf_hflux_del2               =   1.1785322808898E+00
(PID.TID 0000.0001) %MON exf_climsst_max              =   2.9483955260246E+01
(PID.TID 0000.0001) %MON exf_climsst_min              =  -1.9000000000000E+00
(PID.TID 0000.0001) %MON exf_climsst_mean             =   1.8403413558844E+01
(PID.TID 0000.0001) %MON exf_climsst_sd               =   9.1956055138375E+00
(PID.TID 0000.0001) %MON exf_climsst_del2             =   2.4346037167323E-02
(PID.TID 0000.0001) %MON exf_climsss_max              =   3.7459143607847E+01
(PID.TID 0000.0001) %MON exf_climsss_min              =   2.9690893942310E+01
(PID.TID 0000.0001) %MON exf_climsss_mean             =   3.4847776500140E+01
(PID.TID 0000.0001) %MON exf_climsss_sd               =   9.6502048245594E-01
(PID.TID 0000.0001) %MON exf_climsss_del2             =   7.0909874257237E-03
(PID.TID 0000.0001) // =======================================================
(PID.TID 0000.0001) // End MONITOR EXF statistics
(PID.TID 0000.0001) // =======================================================
 cg2d: Sum(rhs),rhsMax =  -3.65929508916452E-13  8.04727754553643E+00
(PID.TID 0000.0001)      cg2d_init_res =   1.17667485894329E+00
(PID.TID 0000.0001)      cg2d_iters(min,last) =      -1      25
(PID.TID 0000.0001)      cg2d_last_res =   8.19532054376992E-14
(PID.TID 0000.0001) // =======================================================
(PID.TID 0000.0001) // Begin MONITOR dynamic field statistics
(PID.TID 0000.0001) // =======================================================
(PID.TID 0000.0001) %MON time_tsnumber                =                    11
(PID.TID 0000.0001) %MON time_secondsf                =   4.7520000000000E+05
(PID.TID 0000.0001) %MON dynstat_eta_max              =   9.3932987350570E-01
(PID.TID 0000.0001) %MON dynstat_eta_min              =  -8.5772363624083E-01
(PID.TID 0000.0001) %MON dynstat_eta_mean             =   3.3599091371189E-16
(PID.TID 0000.0001) %MON dynstat_eta_sd               =   2.8953421622212E-01
(PID.TID 0000.0001) %MON dynstat_eta_del2             =   2.3268137948445E-03
(PID.TID 0000.0001) %MON dynstat_uvel_max             =   1.1079930745731E-01
(PID.TID 0000.0001) %MON dynstat_uvel_min             =  -1.2583010564927E-01
(PID.TID 0000.0001) %MON dynstat_uvel_mean            =  -8.3114743574041E-03
(PID.TID 0000.0001) %MON dynstat_uvel_sd              =   1.2259361186468E-02
(PID.TID 0000.0001) %MON dynstat_uvel_del2            =   9.5206903652696E-05
(PID.TID 0000.0001) %MON dynstat_vvel_max             =   9.9665276916285E-02
(PID.TID 0000.0001) %MON dynstat_vvel_min             =  -9.2923192365132E-02
(PID.TID 0000.0001) %MON dynstat_vvel_mean            =   4.6828204471885E-03
(PID.TID 0000.0001) %MON dynstat_vvel_sd              =   1.4703841773913E-02
(PID.TID 0000.0001) %MON dynstat_vvel_del2            =   1.1371125516212E-04
(PID.TID 0000.0001) %MON dynstat_wvel_max             =   2.5860828887765E-04
(PID.TID 0000.0001) %MON dynstat_wvel_min             =  -3.1448254807744E-04
(PID.TID 0000.0001) %MON dynstat_wvel_mean            =  -1.0804208154937E-21
(PID.TID 0000.0001) %MON dynstat_wvel_sd              =   3.4837386802024E-05
(PID.TID 0000.0001) %MON dynstat_wvel_del2            =   3.8149974926559E-07
(PID.TID 0000.0001) %MON dynstat_theta_max            =   2.9585494893119E+01
(PID.TID 0000.0001) %MON dynstat_theta_min            =  -2.1118720649465E+00
(PID.TID 0000.0001) %MON dynstat_theta_mean           =   3.6042557992332E+00
(PID.TID 0000.0001) %MON dynstat_theta_sd             =   4.3829426691632E+00
(PID.TID 0000.0001) %MON dynstat_theta_del2           =   5.1827231966140E-03
(PID.TID 0000.0001) %MON dynstat_salt_max             =   3.7435688793104E+01
(PID.TID 0000.0001) %MON dynstat_salt_min             =   2.9782781582552E+01
(PID.TID 0000.0001) %MON dynstat_salt_mean            =   3.4716733061917E+01
(PID.TID 0000.0001) %MON dynstat_salt_sd              =   2.9612732408421E-01
(PID.TID 0000.0001) %MON dynstat_salt_del2            =   1.0061239693068E-03
(PID.TID 0000.0001) %MON forcing_qnet_max             =   4.3096268192414E+02
(PID.TID 0000.0001) %MON forcing_qnet_min             =  -1.8476652108469E+02
(PID.TID 0000.0001) %MON forcing_qnet_mean            =  -1.6639663616666E+01
(PID.TID 0000.0001) %MON forcing_qnet_sd              =   1.1182949623291E+02
(PID.TID 0000.0001) %MON forcing_qnet_del2            =   9.9746155806858E-01
(PID.TID 0000.0001) %MON forcing_qsw_max              =   0.0000000000000E+00
(PID.TID 0000.0001) %MON forcing_qsw_min              =   0.0000000000000E+00
(PID.TID 0000.0001) %MON forcing_qsw_mean             =   0.0000000000000E+00
(PID.TID 0000.0001) %MON forcing_qsw_sd               =   0.0000000000000E+00
(PID.TID 0000.0001) %MON forcing_qsw_del2             =   0.0000000000000E+00
(PID.TID 0000.0001) %MON forcing_empmr_max            =   0.0000000000000E+00
(PID.TID 0000.0001) %MON forcing_empmr_min            =   0.0000000000000E+00
(PID.TID 0000.0001) %MON forcing_empmr_mean           =   0.0000000000000E+00
(PID.TID 0000.0001) %MON forcing_empmr_sd             =   0.0000000000000E+00
(PID.TID 0000.0001) %MON forcing_empmr_del2           =   0.0000000000000E+00
(PID.TID 0000.0001) %MON forcing_fu_max               =   2.7020762163785E-01
(PID.TID 0000.0001) %MON forcing_fu_min               =  -1.6077583655715E-01
(PID.TID 0000.0001) %MON forcing_fu_mean              =   1.6019359137368E-02
(PID.TID 0000.0001) %MON forcing_fu_sd                =   8.9857452791955E-02
(PID.TID 0000.0001) %MON forcing_fu_del2              =   6.5404353735084E-04
(PID.TID 0000.0001) %MON forcing_fv_max               =   2.0570888322207E-01
(PID.TID 0000.0001) %MON forcing_fv_min               =  -1.5182039153672E-01
(PID.TID 0000.0001) %MON forcing_fv_mean              =  -5.5156786001913E-03
(PID.TID 0000.0001) %MON forcing_fv_sd                =   4.3627358327032E-02
(PID.TID 0000.0001) %MON forcing_fv_del2              =   3.5084740590333E-04
(PID.TID 0000.0001) %MON trAdv_CFL_u_max              =   1.5182370713585E-02
(PID.TID 0000.0001) %MON trAdv_CFL_v_max              =   1.3850964385702E-02
(PID.TID 0000.0001) %MON trAdv_CFL_w_max              =   9.4414613461562E-02
(PID.TID 0000.0001) %MON advcfl_uvel_max              =   1.6281625441536E-02
(PID.TID 0000.0001) %MON advcfl_vvel_max              =   9.6816824329831E-03
(PID.TID 0000.0001) %MON advcfl_wvel_max              =   1.8150904005374E-01
(PID.TID 0000.0001) %MON advcfl_W_hf_max              =   8.8193889428868E-02
(PID.TID 0000.0001) %MON pe_b_mean                    =   1.0727066906865E-04
(PID.TID 0000.0001) %MON ke_max                       =   6.4124396622991E-03
(PID.TID 0000.0001) %MON ke_mean                      =   2.0657205737822E-04
(PID.TID 0000.0001) %MON ke_vol                       =   1.3226782436723E+18
(PID.TID 0000.0001) %MON vort_r_min                   =  -3.2620260750860E-07
(PID.TID 0000.0001) %MON vort_r_max                   =   5.1812945204417E-07
(PID.TID 0000.0001) %MON vort_a_mean                  =  -2.5205769691000E-05
(PID.TID 0000.0001) %MON vort_a_sd                    =   7.3401694018845E-05
(PID.TID 0000.0001) %MON vort_p_mean                  =  -3.1758669932388E-05
(PID.TID 0000.0001) %MON vort_p_sd                    =   1.3126154847306E-04
(PID.TID 0000.0001) %MON surfExpan_theta_mean         =   1.4416330228242E-04
(PID.TID 0000.0001) %MON surfExpan_salt_mean          =   1.0682184656988E-05
(PID.TID 0000.0001) // =======================================================
(PID.TID 0000.0001) // End MONITOR dynamic field statistics
(PID.TID 0000.0001) // =======================================================
(PID.TID 0000.0001) // =======================================================
(PID.TID 0000.0001) // Begin MONITOR EXF statistics
(PID.TID 0000.0001) // =======================================================
(PID.TID 0000.0001) %MON exf_tsnumber                 =                    11
(PID.TID 0000.0001) %MON exf_time_sec                 =   4.7520000000000E+05
(PID.TID 0000.0001) %MON exf_ustress_max              =   2.7032029821027E-01
(PID.TID 0000.0001) %MON exf_ustress_min              =  -1.6300876342481E-01
(PID.TID 0000.0001) %MON exf_ustress_mean             =   1.4999002387864E-02
(PID.TID 0000.0001) %MON exf_ustress_sd               =   8.8666559307921E-02
(PID.TID 0000.0001) %MON exf_ustress_del2             =   6.9639618964092E-04
(PID.TID 0000.0001) %MON exf_vstress_max              =   2.1492868998358E-01
(PID.TID 0000.0001) %MON exf_vstress_min              =  -1.8379487577946E-01
(PID.TID 0000.0001) %MON exf_vstress_mean             =  -5.6959944633876E-03
(PID.TID 0000.0001) %MON exf_vstress_sd               =   4.5101894500972E-02
(PID.TID 0000.0001) %MON exf_vstress_del2             =   4.6613624846055E-04
(PID.TID 0000.0001) %MON exf_hflux_max                =   4.3146986930601E+02
(PID.TID 0000.0001) %MON exf_hflux_min                =  -1.8454047467632E+02
(PID.TID 0000.0001) %MON exf_hflux_mean               =  -1.6633609444493E+01
(PID.TID 0000.0001) %MON exf_hflux_sd                 =   1.1173010674746E+02
(PID.TID 0000.0001) %MON exf_hflux_del2               =   1.1788517868992E+00
(PID.TID 0000.0001) %MON exf_climsst_max              =   2.9480712890625E+01
(PID.TID 0000.0001) %MON exf_climsst_min              =  -1.9000000000000E+00
(PID.TID 0000.0001) %MON exf_climsst_mean             =   1.8407276396474E+01
(PID.TID 0000.0001) %MON exf_climsst_sd               =   9.1942619057521E+00
(PID.TID 0000.0001) %MON exf_climsst_del2             =   2.4400242208664E-02
(PID.TID 0000.0001) %MON exf_climsss_max              =   3.7459928574101E+01
(PID.TID 0000.0001) %MON exf_climsss_min              =   2.9693840396020E+01
(PID.TID 0000.0001) %MON exf_climsss_mean             =   3.4847878822763E+01
(PID.TID 0000.0001) %MON exf_climsss_sd               =   9.6473567762277E-01
(PID.TID 0000.0001) %MON exf_climsss_del2             =   7.1118635720215E-03
(PID.TID 0000.0001) // =======================================================
(PID.TID 0000.0001) // End MONITOR EXF statistics
(PID.TID 0000.0001) // =======================================================
 cg2d: Sum(rhs),rhsMax =  -6.36823926924990E-13  7.88895797898159E+00
(PID.TID 0000.0001)      cg2d_init_res =   1.15540981532070E+00
(PID.TID 0000.0001)      cg2d_iters(min,last) =      -1      25
(PID.TID 0000.0001)      cg2d_last_res =   7.88267462814550E-14
(PID.TID 0000.0001) // =======================================================
(PID.TID 0000.0001) // Begin MONITOR dynamic field statistics
(PID.TID 0000.0001) // =======================================================
(PID.TID 0000.0001) %MON time_tsnumber                =                    12
(PID.TID 0000.0001) %MON time_secondsf                =   5.1840000000000E+05
(PID.TID 0000.0001) %MON dynstat_eta_max              =   9.6802418022627E-01
(PID.TID 0000.0001) %MON dynstat_eta_min              =  -9.3321747320919E-01
(PID.TID 0000.0001) %MON dynstat_eta_mean             =   4.0164951544804E-16
(PID.TID 0000.0001) %MON dynstat_eta_sd               =   3.0673332854234E-01
(PID.TID 0000.0001) %MON dynstat_eta_del2             =   2.2613432859870E-03
(PID.TID 0000.0001) %MON dynstat_uvel_max             =   1.1795227157380E-01
(PID.TID 0000.0001) %MON dynstat_uvel_min             =  -1.2898290680164E-01
(PID.TID 0000.0001) %MON dynstat_uvel_mean            =  -8.9066632820647E-03
(PID.TID 0000.0001) %MON dynstat_uvel_sd              =   1.3251870885034E-02
(PID.TID 0000.0001) %MON dynstat_uvel_del2            =   9.8952761735038E-05
(PID.TID 0000.0001) %MON dynstat_vvel_max             =   1.0406091146300E-01
(PID.TID 0000.0001) %MON dynstat_vvel_min             =  -9.6030186766250E-02
(PID.TID 0000.0001) %MON dynstat_vvel_mean            =   4.4760558443052E-03
(PID.TID 0000.0001) %MON dynstat_vvel_sd              =   1.4507411814575E-02
(PID.TID 0000.0001) %MON dynstat_vvel_del2            =   1.1541035218955E-04
(PID.TID 0000.0001) %MON dynstat_wvel_max             =   2.5319570609300E-04
(PID.TID 0000.0001) %MON dynstat_wvel_min             =  -3.2821034721661E-04
(PID.TID 0000.0001) %MON dynstat_wvel_mean            =   5.6369781677931E-22
(PID.TID 0000.0001) %MON dynstat_wvel_sd              =   3.4428327190420E-05
(PID.TID 0000.0001) %MON dynstat_wvel_del2            =   3.7608696374724E-07
(PID.TID 0000.0001) %MON dynstat_theta_max            =   2.9547912213252E+01
(PID.TID 0000.0001) %MON dynstat_theta_min            =  -2.1282858771861E+00
(PID.TID 0000.0001) %MON dynstat_theta_mean           =   3.6027270877202E+00
(PID.TID 0000.0001) %MON dynstat_theta_sd             =   4.3789785398695E+00
(PID.TID 0000.0001) %MON dynstat_theta_del2           =   5.1513482216612E-03
(PID.TID 0000.0001) %MON dynstat_salt_max             =   3.7433720010797E+01
(PID.TID 0000.0001) %MON dynstat_salt_min             =   2.9784220846676E+01
(PID.TID 0000.0001) %MON dynstat_salt_mean            =   3.4716619628326E+01
(PID.TID 0000.0001) %MON dynstat_salt_sd              =   2.9610456082395E-01
(PID.TID 0000.0001) %MON dynstat_salt_del2            =   1.0049645835295E-03
(PID.TID 0000.0001) %MON forcing_qnet_max             =   4.3146986930601E+02
(PID.TID 0000.0001) %MON forcing_qnet_min             =  -1.8454047467632E+02
(PID.TID 0000.0001) %MON forcing_qnet_mean            =  -1.6633609444493E+01
(PID.TID 0000.0001) %MON forcing_qnet_sd              =   1.1173010674746E+02
(PID.TID 0000.0001) %MON forcing_qnet_del2            =   9.9835386070598E-01
(PID.TID 0000.0001) %MON forcing_qsw_max              =   0.0000000000000E+00
(PID.TID 0000.0001) %MON forcing_qsw_min              =   0.0000000000000E+00
(PID.TID 0000.0001) %MON forcing_qsw_mean             =   0.0000000000000E+00
(PID.TID 0000.0001) %MON forcing_qsw_sd               =   0.0000000000000E+00
(PID.TID 0000.0001) %MON forcing_qsw_del2             =   0.0000000000000E+00
(PID.TID 0000.0001) %MON forcing_empmr_max            =   0.0000000000000E+00
(PID.TID 0000.0001) %MON forcing_empmr_min            =   0.0000000000000E+00
(PID.TID 0000.0001) %MON forcing_empmr_mean           =   0.0000000000000E+00
(PID.TID 0000.0001) %MON forcing_empmr_sd             =   0.0000000000000E+00
(PID.TID 0000.0001) %MON forcing_empmr_del2           =   0.0000000000000E+00
(PID.TID 0000.0001) %MON forcing_fu_max               =   2.7001957499212E-01
(PID.TID 0000.0001) %MON forcing_fu_min               =  -1.6107859462500E-01
(PID.TID 0000.0001) %MON forcing_fu_mean              =   1.6015394126641E-02
(PID.TID 0000.0001) %MON forcing_fu_sd                =   8.9871526148854E-02
(PID.TID 0000.0001) %MON forcing_fu_del2              =   6.5550690441364E-04
(PID.TID 0000.0001) %MON forcing_fv_max               =   2.0639467335516E-01
(PID.TID 0000.0001) %MON forcing_fv_min               =  -1.5204583084391E-01
(PID.TID 0000.0001) %MON forcing_fv_mean              =  -5.4823437715511E-03
(PID.TID 0000.0001) %MON forcing_fv_sd                =   4.3705193966787E-02
(PID.TID 0000.0001) %MON forcing_fv_del2              =   3.5165273654936E-04
(PID.TID 0000.0001) %MON trAdv_CFL_u_max              =   1.6284932356111E-02
(PID.TID 0000.0001) %MON trAdv_CFL_v_max              =   1.3547432811995E-02
(PID.TID 0000.0001) %MON trAdv_CFL_w_max              =   8.8518750215531E-02
(PID.TID 0000.0001) %MON advcfl_uvel_max              =   1.8564949384164E-02
(PID.TID 0000.0001) %MON advcfl_vvel_max              =   1.0108683080445E-02
(PID.TID 0000.0001) %MON advcfl_wvel_max              =   1.8492923380865E-01
(PID.TID 0000.0001) %MON advcfl_W_hf_max              =   8.1756053989234E-02
(PID.TID 0000.0001) %MON pe_b_mean                    =   1.2039352629782E-04
(PID.TID 0000.0001) %MON ke_max                       =   7.3297181219692E-03
(PID.TID 0000.0001) %MON ke_mean                      =   2.1930502105001E-04
(PID.TID 0000.0001) %MON ke_vol                       =   1.3226782436723E+18
(PID.TID 0000.0001) %MON vort_r_min                   =  -3.2197325335332E-07
(PID.TID 0000.0001) %MON vort_r_max                   =   5.4497370580299E-07
(PID.TID 0000.0001) %MON vort_a_mean                  =  -2.5205769747146E-05
(PID.TID 0000.0001) %MON vort_a_sd                    =   7.3401576340243E-05
(PID.TID 0000.0001) %MON vort_p_mean                  =  -3.1758670003131E-05
(PID.TID 0000.0001) %MON vort_p_sd                    =   1.3126107483665E-04
(PID.TID 0000.0001) %MON surfExpan_theta_mean         =   1.3360014646581E-04
(PID.TID 0000.0001) %MON surfExpan_salt_mean          =   9.4976335705891E-06
(PID.TID 0000.0001) // =======================================================
(PID.TID 0000.0001) // End MONITOR dynamic field statistics
(PID.TID 0000.0001) // =======================================================
(PID.TID 0000.0001) // =======================================================
(PID.TID 0000.0001) // Begin MONITOR EXF statistics
(PID.TID 0000.0001) // =======================================================
(PID.TID 0000.0001) %MON exf_tsnumber                 =                    12
(PID.TID 0000.0001) %MON exf_time_sec                 =   5.1840000000000E+05
(PID.TID 0000.0001) %MON exf_ustress_max              =   2.6990487162144E-01
(PID.TID 0000.0001) %MON exf_ustress_min              =  -1.6340235380396E-01
(PID.TID 0000.0001) %MON exf_ustress_mean             =   1.4996113576231E-02
(PID.TID 0000.0001) %MON exf_ustress_sd               =   8.8684738421357E-02
(PID.TID 0000.0001) %MON exf_ustress_del2             =   6.9780281518039E-04
(PID.TID 0000.0001) %MON exf_vstress_max              =   2.1583832151467E-01
(PID.TID 0000.0001) %MON exf_vstress_min              =  -1.8351197699385E-01
(PID.TID 0000.0001) %MON exf_vstress_mean             =  -5.6649899226448E-03
(PID.TID 0000.0001) %MON exf_vstress_sd               =   4.5179729141995E-02
(PID.TID 0000.0001) %MON exf_vstress_del2             =   4.6694682084966E-04
(PID.TID 0000.0001) %MON exf_hflux_max                =   4.3197705668788E+02
(PID.TID 0000.0001) %MON exf_hflux_min                =  -1.8431442826794E+02
(PID.TID 0000.0001) %MON exf_hflux_mean               =  -1.6627555272321E+01
(PID.TID 0000.0001) %MON exf_hflux_sd                 =   1.1163132884860E+02
(PID.TID 0000.0001) %MON exf_hflux_del2               =   1.1792075689085E+00
(PID.TID 0000.0001) %MON exf_climsst_max              =   2.9478864669800E+01
(PID.TID 0000.0001) %MON exf_climsst_min              =  -1.9000000000000E+00
(PID.TID 0000.0001) %MON exf_climsst_mean             =   1.8411139234104E+01
(PID.TID 0000.0001) %MON exf_climsst_sd               =   9.1929787466535E+00
(PID.TID 0000.0001) %MON exf_climsst_del2             =   2.4463358305507E-02
(PID.TID 0000.0001) %MON exf_climsss_max              =   3.7460713540354E+01
(PID.TID 0000.0001) %MON exf_climsss_min              =   2.9696786849729E+01
(PID.TID 0000.0001) %MON exf_climsss_mean             =   3.4847981145385E+01
(PID.TID 0000.0001) %MON exf_climsss_sd               =   9.6447180143091E-01
(PID.TID 0000.0001) %MON exf_climsss_del2             =   7.1354415626269E-03
(PID.TID 0000.0001) // =======================================================
(PID.TID 0000.0001) // End MONITOR EXF statistics
(PID.TID 0000.0001) // =======================================================
 cg2d: Sum(rhs),rhsMax =  -8.44657677134819E-13  8.31754379147366E+00
(PID.TID 0000.0001)      cg2d_init_res =   1.05639236129967E+00
(PID.TID 0000.0001)      cg2d_iters(min,last) =      -1      25
(PID.TID 0000.0001)      cg2d_last_res =   6.97416509688133E-14
(PID.TID 0000.0001) // =======================================================
(PID.TID 0000.0001) // Begin MONITOR dynamic field statistics
(PID.TID 0000.0001) // =======================================================
(PID.TID 0000.0001) %MON time_tsnumber                =                    13
(PID.TID 0000.0001) %MON time_secondsf                =   5.6160000000000E+05
(PID.TID 0000.0001) %MON dynstat_eta_max              =   1.0164868264484E+00
(PID.TID 0000.0001) %MON dynstat_eta_min              =  -1.0078756140118E+00
(PID.TID 0000.0001) %MON dynstat_eta_mean             =   5.0443918851084E-16
(PID.TID 0000.0001) %MON dynstat_eta_sd               =   3.2170165748830E-01
(PID.TID 0000.0001) %MON dynstat_eta_del2             =   2.2013776358950E-03
(PID.TID 0000.0001) %MON dynstat_uvel_max             =   1.2443724746886E-01
(PID.TID 0000.0001) %MON dynstat_uvel_min             =  -1.2804426639582E-01
(PID.TID 0000.0001) %MON dynstat_uvel_mean            =  -9.3759963240945E-03
(PID.TID 0000.0001) %MON dynstat_uvel_sd              =   1.4142488887130E-02
(PID.TID 0000.0001) %MON dynstat_uvel_del2            =   1.0207300145990E-04
(PID.TID 0000.0001) %MON dynstat_vvel_max             =   1.0912579012923E-01
(PID.TID 0000.0001) %MON dynstat_vvel_min             =  -9.7342351499306E-02
(PID.TID 0000.0001) %MON dynstat_vvel_mean            =   4.2069031798902E-03
(PID.TID 0000.0001) %MON dynstat_vvel_sd              =   1.4237245909743E-02
(PID.TID 0000.0001) %MON dynstat_vvel_del2            =   1.1605113326674E-04
(PID.TID 0000.0001) %MON dynstat_wvel_max             =   2.5418765757461E-04
(PID.TID 0000.0001) %MON dynstat_wvel_min             =  -3.3596511206596E-04
(PID.TID 0000.0001) %MON dynstat_wvel_mean            =  -8.4554672516896E-22
(PID.TID 0000.0001) %MON dynstat_wvel_sd              =   3.3737126903698E-05
(PID.TID 0000.0001) %MON dynstat_wvel_del2            =   3.6655972856716E-07
(PID.TID 0000.0001) %MON dynstat_theta_max            =   2.9557009089275E+01
(PID.TID 0000.0001) %MON dynstat_theta_min            =  -2.1381892230463E+00
(PID.TID 0000.0001) %MON dynstat_theta_mean           =   3.6013304770620E+00
(PID.TID 0000.0001) %MON dynstat_theta_sd             =   4.3751567911511E+00
(PID.TID 0000.0001) %MON dynstat_theta_del2           =   5.1215609783798E-03
(PID.TID 0000.0001) %MON dynstat_salt_max             =   3.7431897315870E+01
(PID.TID 0000.0001) %MON dynstat_salt_min             =   2.9785226394387E+01
(PID.TID 0000.0001) %MON dynstat_salt_mean            =   3.4716520628721E+01
(PID.TID 0000.0001) %MON dynstat_salt_sd              =   2.9607804474191E-01
(PID.TID 0000.0001) %MON dynstat_salt_del2            =   1.0041339761161E-03
(PID.TID 0000.0001) %MON forcing_qnet_max             =   4.3197705668788E+02
(PID.TID 0000.0001) %MON forcing_qnet_min             =  -1.8431442826794E+02
(PID.TID 0000.0001) %MON forcing_qnet_mean            =  -1.6627555272321E+01
(PID.TID 0000.0001) %MON forcing_qnet_sd              =   1.1163132884860E+02
(PID.TID 0000.0001) %MON forcing_qnet_del2            =   9.9928686399933E-01
(PID.TID 0000.0001) %MON forcing_qsw_max              =   0.0000000000000E+00
(PID.TID 0000.0001) %MON forcing_qsw_min              =   0.0000000000000E+00
(PID.TID 0000.0001) %MON forcing_qsw_mean             =   0.0000000000000E+00
(PID.TID 0000.0001) %MON forcing_qsw_sd               =   0.0000000000000E+00
(PID.TID 0000.0001) %MON forcing_qsw_del2             =   0.0000000000000E+00
(PID.TID 0000.0001) %MON forcing_empmr_max            =   0.0000000000000E+00
(PID.TID 0000.0001) %MON forcing_empmr_min            =   0.0000000000000E+00
(PID.TID 0000.0001) %MON forcing_empmr_mean           =   0.0000000000000E+00
(PID.TID 0000.0001) %MON forcing_empmr_sd             =   0.0000000000000E+00
(PID.TID 0000.0001) %MON forcing_empmr_del2           =   0.0000000000000E+00
(PID.TID 0000.0001) %MON forcing_fu_max               =   2.6983152834638E-01
(PID.TID 0000.0001) %MON forcing_fu_min               =  -1.6138135269284E-01
(PID.TID 0000.0001) %MON forcing_fu_mean              =   1.6011429115913E-02
(PID.TID 0000.0001) %MON forcing_fu_sd                =   8.9888060443000E-02
(PID.TID 0000.0001) %MON forcing_fu_del2              =   6.5707434264057E-04
(PID.TID 0000.0001) %MON forcing_fv_max               =   2.0708046348826E-01
(PID.TID 0000.0001) %MON forcing_fv_min               =  -1.5227127015110E-01
(PID.TID 0000.0001) %MON forcing_fv_mean              =  -5.4490089429109E-03
(PID.TID 0000.0001) %MON forcing_fv_sd                =   4.3786156563931E-02
(PID.TID 0000.0001) %MON forcing_fv_del2              =   3.5253650197433E-04
(PID.TID 0000.0001) %MON trAdv_CFL_u_max              =   1.8568720058163E-02
(PID.TID 0000.0001) %MON trAdv_CFL_v_max              =   1.2906519778705E-02
(PID.TID 0000.0001) %MON trAdv_CFL_w_max              =   8.0602395038508E-02
(PID.TID 0000.0001) %MON advcfl_uvel_max              =   2.1567857774055E-02
(PID.TID 0000.0001) %MON advcfl_vvel_max              =   1.0600695427426E-02
(PID.TID 0000.0001) %MON advcfl_wvel_max              =   1.8552955489445E-01
(PID.TID 0000.0001) %MON advcfl_W_hf_max              =   8.0448951430200E-02
(PID.TID 0000.0001) %MON pe_b_mean                    =   1.3243043243159E-04
(PID.TID 0000.0001) %MON ke_max                       =   8.2315725322783E-03
(PID.TID 0000.0001) %MON ke_mean                      =   2.2975206230399E-04
(PID.TID 0000.0001) %MON ke_vol                       =   1.3226782436723E+18
(PID.TID 0000.0001) %MON vort_r_min                   =  -3.1485976659845E-07
(PID.TID 0000.0001) %MON vort_r_max                   =   5.5735994243955E-07
(PID.TID 0000.0001) %MON vort_a_mean                  =  -2.5205769780005E-05
(PID.TID 0000.0001) %MON vort_a_sd                    =   7.3401480961498E-05
(PID.TID 0000.0001) %MON vort_p_mean                  =  -3.1758670044533E-05
(PID.TID 0000.0001) %MON vort_p_sd                    =   1.3126067858455E-04
(PID.TID 0000.0001) %MON surfExpan_theta_mean         =   1.2170433263791E-04
(PID.TID 0000.0001) %MON surfExpan_salt_mean          =   8.2173974958424E-06
(PID.TID 0000.0001) // =======================================================
(PID.TID 0000.0001) // End MONITOR dynamic field statistics
(PID.TID 0000.0001) // =======================================================
(PID.TID 0000.0001) // =======================================================
(PID.TID 0000.0001) // Begin MONITOR EXF statistics
(PID.TID 0000.0001) // =======================================================
(PID.TID 0000.0001) %MON exf_tsnumber                 =                    13
(PID.TID 0000.0001) %MON exf_time_sec                 =   5.6160000000000E+05
(PID.TID 0000.0001) %MON exf_ustress_max              =   2.6979751836869E-01
(PID.TID 0000.0001) %MON exf_ustress_min              =  -1.6379594418310E-01
(PID.TID 0000.0001) %MON exf_ustress_mean             =   1.4993224764597E-02
(PID.TID 0000.0001) %MON exf_ustress_sd               =   8.8705415003953E-02
(PID.TID 0000.0001) %MON exf_ustress_del2             =   6.9932602144313E-04
(PID.TID 0000.0001) %MON exf_vstress_max              =   2.1674795304575E-01
(PID.TID 0000.0001) %MON exf_vstress_min              =  -1.8322907820825E-01
(PID.TID 0000.0001) %MON exf_vstress_mean             =  -5.6339853819020E-03
(PID.TID 0000.0001) %MON exf_vstress_sd               =   4.5260915710932E-02
(PID.TID 0000.0001) %MON exf_vstress_del2             =   4.6787403109410E-04
(PID.TID 0000.0001) %MON exf_hflux_max                =   4.3248424406975E+02
(PID.TID 0000.0001) %MON exf_hflux_min                =  -1.8408838185956E+02
(PID.TID 0000.0001) %MON exf_hflux_mean               =  -1.6621501100148E+01
(PID.TID 0000.0001) %MON exf_hflux_sd                 =   1.1153316416126E+02
(PID.TID 0000.0001) %MON exf_hflux_del2               =   1.1795995940939E+00
(PID.TID 0000.0001) %MON exf_climsst_max              =   2.9477016448975E+01
(PID.TID 0000.0001) %MON exf_climsst_min              =  -1.9000000000000E+00
(PID.TID 0000.0001) %MON exf_climsst_mean             =   1.8415002071734E+01
(PID.TID 0000.0001) %MON exf_climsst_sd               =   9.1917560618574E+00
(PID.TID 0000.0001) %MON exf_climsst_del2             =   2.4535316687973E-02
(PID.TID 0000.0001) %MON exf_climsss_max              =   3.7461498506608E+01
(PID.TID 0000.0001) %MON exf_climsss_min              =   2.9699733303439E+01
(PID.TID 0000.0001) %MON exf_climsss_mean             =   3.4848083468007E+01
(PID.TID 0000.0001) %MON exf_climsss_sd               =   9.6422887106270E-01
(PID.TID 0000.0001) %MON exf_climsss_del2             =   7.1616947122608E-03
(PID.TID 0000.0001) // =======================================================
(PID.TID 0000.0001) // End MONITOR EXF statistics
(PID.TID 0000.0001) // =======================================================
 cg2d: Sum(rhs),rhsMax =  -7.49622586226906E-13  8.97048397340147E+00
(PID.TID 0000.0001)      cg2d_init_res =   9.46748120848987E-01
(PID.TID 0000.0001)      cg2d_iters(min,last) =      -1      25
(PID.TID 0000.0001)      cg2d_last_res =   5.94479987598542E-14
(PID.TID 0000.0001) // =======================================================
(PID.TID 0000.0001) // Begin MONITOR dynamic field statistics
(PID.TID 0000.0001) // =======================================================
(PID.TID 0000.0001) %MON time_tsnumber                =                    14
(PID.TID 0000.0001) %MON time_secondsf                =   6.0480000000000E+05
(PID.TID 0000.0001) %MON dynstat_eta_max              =   1.0840734733175E+00
(PID.TID 0000.0001) %MON dynstat_eta_min              =  -1.0744503098657E+00
(PID.TID 0000.0001) %MON dynstat_eta_mean             =   4.4738412769184E-16
(PID.TID 0000.0001) %MON dynstat_eta_sd               =   3.3439342397955E-01
(PID.TID 0000.0001) %MON dynstat_eta_del2             =   2.1487229988727E-03
(PID.TID 0000.0001) %MON dynstat_uvel_max             =   1.3104892854536E-01
(PID.TID 0000.0001) %MON dynstat_uvel_min             =  -1.2351608270490E-01
(PID.TID 0000.0001) %MON dynstat_uvel_mean            =  -9.7106487507091E-03
(PID.TID 0000.0001) %MON dynstat_uvel_sd              =   1.4925281210807E-02
(PID.TID 0000.0001) %MON dynstat_uvel_del2            =   1.0461154622982E-04
(PID.TID 0000.0001) %MON dynstat_vvel_max             =   1.1941741251222E-01
(PID.TID 0000.0001) %MON dynstat_vvel_min             =  -9.9137404317920E-02
(PID.TID 0000.0001) %MON dynstat_vvel_mean            =   3.8965745615581E-03
(PID.TID 0000.0001) %MON dynstat_vvel_sd              =   1.3936933887658E-02
(PID.TID 0000.0001) %MON dynstat_vvel_del2            =   1.1579766224139E-04
(PID.TID 0000.0001) %MON dynstat_wvel_max             =   2.5177066190472E-04
(PID.TID 0000.0001) %MON dynstat_wvel_min             =  -3.3757558455867E-04
(PID.TID 0000.0001) %MON dynstat_wvel_mean            =   7.9857190710402E-22
(PID.TID 0000.0001) %MON dynstat_wvel_sd              =   3.2837236952005E-05
(PID.TID 0000.0001) %MON dynstat_wvel_del2            =   3.5391948026081E-07
(PID.TID 0000.0001) %MON dynstat_theta_max            =   2.9558070463947E+01
(PID.TID 0000.0001) %MON dynstat_theta_min            =  -2.1414394163928E+00
(PID.TID 0000.0001) %MON dynstat_theta_mean           =   3.6000773550127E+00
(PID.TID 0000.0001) %MON dynstat_theta_sd             =   4.3715165579771E+00
(PID.TID 0000.0001) %MON dynstat_theta_del2           =   5.0927964545224E-03
(PID.TID 0000.0001) %MON dynstat_salt_max             =   3.7430169534208E+01
(PID.TID 0000.0001) %MON dynstat_salt_min             =   2.9785835461826E+01
(PID.TID 0000.0001) %MON dynstat_salt_mean            =   3.4716436701883E+01
(PID.TID 0000.0001) %MON dynstat_salt_sd              =   2.9604876854996E-01
(PID.TID 0000.0001) %MON dynstat_salt_del2            =   1.0033360045504E-03
(PID.TID 0000.0001) %MON forcing_qnet_max             =   4.3248424406975E+02
(PID.TID 0000.0001) %MON forcing_qnet_min             =  -1.8408838185956E+02
(PID.TID 0000.0001) %MON forcing_qnet_mean            =  -1.6621501100148E+01
(PID.TID 0000.0001) %MON forcing_qnet_sd              =   1.1153316416126E+02
(PID.TID 0000.0001) %MON forcing_qnet_del2            =   1.0002604540568E+00
(PID.TID 0000.0001) %MON forcing_qsw_max              =   0.0000000000000E+00
(PID.TID 0000.0001) %MON forcing_qsw_min              =   0.0000000000000E+00
(PID.TID 0000.0001) %MON forcing_qsw_mean             =   0.0000000000000E+00
(PID.TID 0000.0001) %MON forcing_qsw_sd               =   0.0000000000000E+00
(PID.TID 0000.0001) %MON forcing_qsw_del2             =   0.0000000000000E+00
(PID.TID 0000.0001) %MON forcing_empmr_max            =   0.0000000000000E+00
(PID.TID 0000.0001) %MON forcing_empmr_min            =   0.0000000000000E+00
(PID.TID 0000.0001) %MON forcing_empmr_mean           =   0.0000000000000E+00
(PID.TID 0000.0001) %MON forcing_empmr_sd             =   0.0000000000000E+00
(PID.TID 0000.0001) %MON forcing_empmr_del2           =   0.0000000000000E+00
(PID.TID 0000.0001) %MON forcing_fu_max               =   2.6964348170065E-01
(PID.TID 0000.0001) %MON forcing_fu_min               =  -1.6168411076069E-01
(PID.TID 0000.0001) %MON forcing_fu_mean              =   1.6007464105186E-02
(PID.TID 0000.0001) %MON forcing_fu_sd                =   8.9907054316662E-02
(PID.TID 0000.0001) %MON forcing_fu_del2              =   6.5874510914174E-04
(PID.TID 0000.0001) %MON forcing_fv_max               =   2.0776625362135E-01
(PID.TID 0000.0001) %MON forcing_fv_min               =  -1.5249670945829E-01
(PID.TID 0000.0001) %MON forcing_fv_mean              =  -5.4156741142706E-03
(PID.TID 0000.0001) %MON forcing_fv_sd                =   4.3870228806050E-02
(PID.TID 0000.0001) %MON forcing_fv_del2              =   3.5349811390448E-04
(PID.TID 0000.0001) %MON trAdv_CFL_u_max              =   2.1572238360225E-02
(PID.TID 0000.0001) %MON trAdv_CFL_v_max              =   1.1850901959328E-02
(PID.TID 0000.0001) %MON trAdv_CFL_w_max              =   8.0448951430200E-02
(PID.TID 0000.0001) %MON advcfl_uvel_max              =   2.3670221721789E-02
(PID.TID 0000.0001) %MON advcfl_vvel_max              =   1.1600444013044E-02
(PID.TID 0000.0001) %MON advcfl_wvel_max              =   1.7227040292092E-01
(PID.TID 0000.0001) %MON advcfl_W_hf_max              =   7.5025453829750E-02
(PID.TID 0000.0001) %MON pe_b_mean                    =   1.4308583973602E-04
(PID.TID 0000.0001) %MON ke_max                       =   9.0967474867422E-03
(PID.TID 0000.0001) %MON ke_mean                      =   2.3806393856029E-04
(PID.TID 0000.0001) %MON ke_vol                       =   1.3226782436723E+18
(PID.TID 0000.0001) %MON vort_r_min                   =  -3.3333806124691E-07
(PID.TID 0000.0001) %MON vort_r_max                   =   5.5513934517039E-07
(PID.TID 0000.0001) %MON vort_a_mean                  =  -2.5205769788322E-05
(PID.TID 0000.0001) %MON vort_a_sd                    =   7.3401409747734E-05
(PID.TID 0000.0001) %MON vort_p_mean                  =  -3.1758670055011E-05
(PID.TID 0000.0001) %MON vort_p_sd                    =   1.3126037530654E-04
(PID.TID 0000.0001) %MON surfExpan_theta_mean         =   1.0893600196592E-04
(PID.TID 0000.0001) %MON surfExpan_salt_mean          =   6.8943289049915E-06
(PID.TID 0000.0001) // =======================================================
(PID.TID 0000.0001) // End MONITOR dynamic field statistics
(PID.TID 0000.0001) // =======================================================
(PID.TID 0000.0001) // =======================================================
(PID.TID 0000.0001) // Begin MONITOR EXF statistics
(PID.TID 0000.0001) // =======================================================
(PID.TID 0000.0001) %MON exf_tsnumber                 =                    14
(PID.TID 0000.0001) %MON exf_time_sec                 =   6.0480000000000E+05
(PID.TID 0000.0001) %MON exf_ustress_max              =   2.6983685166605E-01
(PID.TID 0000.0001) %MON exf_ustress_min              =  -1.6418953456225E-01
(PID.TID 0000.0001) %MON exf_ustress_mean             =   1.4990335952964E-02
(PID.TID 0000.0001) %MON exf_ustress_sd               =   8.8728587309739E-02
(PID.TID 0000.0001) %MON exf_ustress_del2             =   7.0096504843521E-04
(PID.TID 0000.0001) %MON exf_vstress_max              =   2.1765758457684E-01
(PID.TID 0000.0001) %MON exf_vstress_min              =  -1.8294617942264E-01
(PID.TID 0000.0001) %MON exf_vstress_mean             =  -5.6029808411593E-03
(PID.TID 0000.0001) %MON exf_vstress_sd               =   4.5345436203889E-02
(PID.TID 0000.0001) %MON exf_vstress_del2             =   4.6891718729513E-04
(PID.TID 0000.0001) %MON exf_hflux_max                =   4.3299143145161E+02
(PID.TID 0000.0001) %MON exf_hflux_min                =  -1.8386233545119E+02
(PID.TID 0000.0001) %MON exf_hflux_mean               =  -1.6615446927976E+01
(PID.TID 0000.0001) %MON exf_hflux_sd                 =   1.1143561430599E+02
(PID.TID 0000.0001) %MON exf_hflux_del2               =   1.1800278263336E+00
(PID.TID 0000.0001) %MON exf_climsst_max              =   2.9475168228149E+01
(PID.TID 0000.0001) %MON exf_climsst_min              =  -1.9000000000000E+00
(PID.TID 0000.0001) %MON exf_climsst_mean             =   1.8418864909364E+01
(PID.TID 0000.0001) %MON exf_climsst_sd               =   9.1905938754998E+00
(PID.TID 0000.0001) %MON exf_climsst_del2             =   2.4616039812039E-02
(PID.TID 0000.0001) %MON exf_climsss_max              =   3.7462283472861E+01
(PID.TID 0000.0001) %MON exf_climsss_min              =   2.9702679757149E+01
(PID.TID 0000.0001) %MON exf_climsss_mean             =   3.4848185790629E+01
(PID.TID 0000.0001) %MON exf_climsss_sd               =   9.6400690235322E-01
(PID.TID 0000.0001) %MON exf_climsss_del2             =   7.1905937196401E-03
(PID.TID 0000.0001) // =======================================================
(PID.TID 0000.0001) // End MONITOR EXF statistics
(PID.TID 0000.0001) // =======================================================
 cg2d: Sum(rhs),rhsMax =  -8.29558643999917E-13  9.43480072446720E+00
(PID.TID 0000.0001)      cg2d_init_res =   8.73253184568476E-01
(PID.TID 0000.0001)      cg2d_iters(min,last) =      -1      25
(PID.TID 0000.0001)      cg2d_last_res =   5.11926766462723E-14
(PID.TID 0000.0001) // =======================================================
(PID.TID 0000.0001) // Begin MONITOR dynamic field statistics
(PID.TID 0000.0001) // =======================================================
(PID.TID 0000.0001) %MON time_tsnumber                =                    15
(PID.TID 0000.0001) %MON time_secondsf                =   6.4800000000000E+05
(PID.TID 0000.0001) %MON dynstat_eta_max              =   1.1385227374180E+00
(PID.TID 0000.0001) %MON dynstat_eta_min              =  -1.1106410912446E+00
(PID.TID 0000.0001) %MON dynstat_eta_mean             =   5.2979699331928E-16
(PID.TID 0000.0001) %MON dynstat_eta_sd               =   3.4483635783033E-01
(PID.TID 0000.0001) %MON dynstat_eta_del2             =   2.1036116531395E-03
(PID.TID 0000.0001) %MON dynstat_uvel_max             =   1.3990717288610E-01
(PID.TID 0000.0001) %MON dynstat_uvel_min             =  -1.2437447050950E-01
(PID.TID 0000.0001) %MON dynstat_uvel_mean            =  -9.9074535422106E-03
(PID.TID 0000.0001) %MON dynstat_uvel_sd              =   1.5598722289028E-02
(PID.TID 0000.0001) %MON dynstat_uvel_del2            =   1.0662761379772E-04
(PID.TID 0000.0001) %MON dynstat_vvel_max             =   1.3179553211793E-01
(PID.TID 0000.0001) %MON dynstat_vvel_min             =  -1.0134292108900E-01
(PID.TID 0000.0001) %MON dynstat_vvel_mean            =   3.5667119128291E-03
(PID.TID 0000.0001) %MON dynstat_vvel_sd              =   1.3643419214572E-02
(PID.TID 0000.0001) %MON dynstat_vvel_del2            =   1.1485783523499E-04
(PID.TID 0000.0001) %MON dynstat_wvel_max             =   2.4637522693455E-04
(PID.TID 0000.0001) %MON dynstat_wvel_min             =  -3.3359787053941E-04
(PID.TID 0000.0001) %MON dynstat_wvel_mean            =   2.1138668129224E-21
(PID.TID 0000.0001) %MON dynstat_wvel_sd              =   3.1799647012610E-05
(PID.TID 0000.0001) %MON dynstat_wvel_del2            =   3.3918072029955E-07
(PID.TID 0000.0001) %MON dynstat_theta_max            =   2.9548091059413E+01
(PID.TID 0000.0001) %MON dynstat_theta_min            =  -2.1382350160259E+00
(PID.TID 0000.0001) %MON dynstat_theta_mean           =   3.5989743663745E+00
(PID.TID 0000.0001) %MON dynstat_theta_sd             =   4.3680935207106E+00
(PID.TID 0000.0001) %MON dynstat_theta_del2           =   5.0657622628700E-03
(PID.TID 0000.0001) %MON dynstat_salt_max             =   3.7428508488913E+01
(PID.TID 0000.0001) %MON dynstat_salt_min             =   2.9786105212448E+01
(PID.TID 0000.0001) %MON dynstat_salt_mean            =   3.4716367968625E+01
(PID.TID 0000.0001) %MON dynstat_salt_sd              =   2.9601752879508E-01
(PID.TID 0000.0001) %MON dynstat_salt_del2            =   1.0027872295241E-03
(PID.TID 0000.0001) %MON forcing_qnet_max             =   4.3299143145161E+02
(PID.TID 0000.0001) %MON forcing_qnet_min             =  -1.8386233545119E+02
(PID.TID 0000.0001) %MON forcing_qnet_mean            =  -1.6615446927976E+01
(PID.TID 0000.0001) %MON forcing_qnet_sd              =   1.1143561430599E+02
(PID.TID 0000.0001) %MON forcing_qnet_del2            =   1.0012745124846E+00
(PID.TID 0000.0001) %MON forcing_qsw_max              =   0.0000000000000E+00
(PID.TID 0000.0001) %MON forcing_qsw_min              =   0.0000000000000E+00
(PID.TID 0000.0001) %MON forcing_qsw_mean             =   0.0000000000000E+00
(PID.TID 0000.0001) %MON forcing_qsw_sd               =   0.0000000000000E+00
(PID.TID 0000.0001) %MON forcing_qsw_del2             =   0.0000000000000E+00
(PID.TID 0000.0001) %MON forcing_empmr_max            =   0.0000000000000E+00
(PID.TID 0000.0001) %MON forcing_empmr_min            =   0.0000000000000E+00
(PID.TID 0000.0001) %MON forcing_empmr_mean           =   0.0000000000000E+00
(PID.TID 0000.0001) %MON forcing_empmr_sd             =   0.0000000000000E+00
(PID.TID 0000.0001) %MON forcing_empmr_del2           =   0.0000000000000E+00
(PID.TID 0000.0001) %MON forcing_fu_max               =   2.6945543505492E-01
(PID.TID 0000.0001) %MON forcing_fu_min               =  -1.6198686882854E-01
(PID.TID 0000.0001) %MON forcing_fu_mean              =   1.6003499094459E-02
(PID.TID 0000.0001) %MON forcing_fu_sd                =   8.9928506211371E-02
(PID.TID 0000.0001) %MON forcing_fu_del2              =   6.6051841981797E-04
(PID.TID 0000.0001) %MON forcing_fv_max               =   2.0845204375444E-01
(PID.TID 0000.0001) %MON forcing_fv_min               =  -1.5272214876548E-01
(PID.TID 0000.0001) %MON forcing_fv_mean              =  -5.3823392856304E-03
(PID.TID 0000.0001) %MON forcing_fv_sd                =   4.3957392850766E-02
(PID.TID 0000.0001) %MON forcing_fv_del2              =   3.5453693891022E-04
(PID.TID 0000.0001) %MON trAdv_CFL_u_max              =   2.3675029313113E-02
(PID.TID 0000.0001) %MON trAdv_CFL_v_max              =   1.1249708332951E-02
(PID.TID 0000.0001) %MON trAdv_CFL_w_max              =   7.5025453829750E-02
(PID.TID 0000.0001) %MON advcfl_uvel_max              =   2.4586996831953E-02
(PID.TID 0000.0001) %MON advcfl_vvel_max              =   1.2802879072153E-02
(PID.TID 0000.0001) %MON advcfl_wvel_max              =   1.4729696131473E-01
(PID.TID 0000.0001) %MON advcfl_W_hf_max              =   6.5914473136934E-02
(PID.TID 0000.0001) %MON pe_b_mean                    =   1.5216238226940E-04
(PID.TID 0000.0001) %MON ke_max                       =   9.9071429545267E-03
(PID.TID 0000.0001) %MON ke_mean                      =   2.4441743178202E-04
(PID.TID 0000.0001) %MON ke_vol                       =   1.3226782436723E+18
(PID.TID 0000.0001) %MON vort_r_min                   =  -3.5535136597336E-07
(PID.TID 0000.0001) %MON vort_r_max                   =   5.3886202866405E-07
(PID.TID 0000.0001) %MON vort_a_mean                  =  -2.5205769774005E-05
(PID.TID 0000.0001) %MON vort_a_sd                    =   7.3401363593815E-05
(PID.TID 0000.0001) %MON vort_p_mean                  =  -3.1758670036973E-05
(PID.TID 0000.0001) %MON vort_p_sd                    =   1.3126017419751E-04
(PID.TID 0000.0001) %MON surfExpan_theta_mean         =   9.5706242811607E-05
(PID.TID 0000.0001) %MON surfExpan_salt_mean          =   5.5733001667361E-06
(PID.TID 0000.0001) // =======================================================
(PID.TID 0000.0001) // End MONITOR dynamic field statistics
(PID.TID 0000.0001) // =======================================================
(PID.TID 0000.0001) // =======================================================
(PID.TID 0000.0001) // Begin MONITOR EXF statistics
(PID.TID 0000.0001) // =======================================================
(PID.TID 0000.0001) %MON exf_tsnumber                 =                    15
(PID.TID 0000.0001) %MON exf_time_sec                 =   6.4800000000000E+05
(PID.TID 0000.0001) %MON exf_ustress_max              =   2.6987618496341E-01
(PID.TID 0000.0001) %MON exf_ustress_min              =  -1.6458312494140E-01
(PID.TID 0000.0001) %MON exf_ustress_mean             =   1.4987447141331E-02
(PID.TID 0000.0001) %MON exf_ustress_sd               =   8.8754253383936E-02
(PID.TID 0000.0001) %MON exf_ustress_del2             =   7.0271908573382E-04
(PID.TID 0000.0001) %MON exf_vstress_max              =   2.1856721610792E-01
(PID.TID 0000.0001) %MON exf_vstress_min              =  -1.8266328063703E-01
(PID.TID 0000.0001) %MON exf_vstress_mean             =  -5.5719763004165E-03
(PID.TID 0000.0001) %MON exf_vstress_sd               =   4.5433272014359E-02
(PID.TID 0000.0001) %MON exf_vstress_del2             =   4.7007551755777E-04
(PID.TID 0000.0001) %MON exf_hflux_max                =   4.3349861883348E+02
(PID.TID 0000.0001) %MON exf_hflux_min                =  -1.8363628904281E+02
(PID.TID 0000.0001) %MON exf_hflux_mean               =  -1.6609392755803E+01
(PID.TID 0000.0001) %MON exf_hflux_sd                 =   1.1133868089886E+02
(PID.TID 0000.0001) %MON exf_hflux_del2               =   1.1804922262245E+00
(PID.TID 0000.0001) %MON exf_climsst_max              =   2.9473320007324E+01
(PID.TID 0000.0001) %MON exf_climsst_min              =  -1.9000000000000E+00
(PID.TID 0000.0001) %MON exf_climsst_mean             =   1.8422727746995E+01
(PID.TID 0000.0001) %MON exf_climsst_sd               =   9.1894922105341E+00
(PID.TID 0000.0001) %MON exf_climsst_del2             =   2.4705441763507E-02
(PID.TID 0000.0001) %MON exf_climsss_max              =   3.7463068439114E+01
(PID.TID 0000.0001) %MON exf_climsss_min              =   2.9705626210859E+01
(PID.TID 0000.0001) %MON exf_climsss_mean             =   3.4848288113252E+01
(PID.TID 0000.0001) %MON exf_climsss_sd               =   9.6380590978517E-01
(PID.TID 0000.0001) %MON exf_climsss_del2             =   7.2221068229136E-03
(PID.TID 0000.0001) // =======================================================
(PID.TID 0000.0001) // End MONITOR EXF statistics
(PID.TID 0000.0001) // =======================================================
 cg2d: Sum(rhs),rhsMax =  -7.76267938817909E-13  9.69891950271935E+00
(PID.TID 0000.0001)      cg2d_init_res =   8.27183783167458E-01
(PID.TID 0000.0001)      cg2d_iters(min,last) =      -1      25
(PID.TID 0000.0001)      cg2d_last_res =   4.41866743444745E-14
(PID.TID 0000.0001) // =======================================================
(PID.TID 0000.0001) // Begin MONITOR dynamic field statistics
(PID.TID 0000.0001) // =======================================================
(PID.TID 0000.0001) %MON time_tsnumber                =                    16
(PID.TID 0000.0001) %MON time_secondsf                =   6.9120000000000E+05
(PID.TID 0000.0001) %MON dynstat_eta_max              =   1.1695576084733E+00
(PID.TID 0000.0001) %MON dynstat_eta_min              =  -1.1102259556999E+00
(PID.TID 0000.0001) %MON dynstat_eta_mean             =   4.7545884015833E-16
(PID.TID 0000.0001) %MON dynstat_eta_sd               =   3.5312590841245E-01
(PID.TID 0000.0001) %MON dynstat_eta_del2             =   2.0652934797321E-03
(PID.TID 0000.0001) %MON dynstat_uvel_max             =   1.4793125603484E-01
(PID.TID 0000.0001) %MON dynstat_uvel_min             =  -1.2506658442845E-01
(PID.TID 0000.0001) %MON dynstat_uvel_mean            =  -9.9686435824743E-03
(PID.TID 0000.0001) %MON dynstat_uvel_sd              =   1.6164972464683E-02
(PID.TID 0000.0001) %MON dynstat_uvel_del2            =   1.0819021083073E-04
(PID.TID 0000.0001) %MON dynstat_vvel_max             =   1.4113087653410E-01
(PID.TID 0000.0001) %MON dynstat_vvel_min             =  -1.0243768650641E-01
(PID.TID 0000.0001) %MON dynstat_vvel_mean            =   3.2380917025483E-03
(PID.TID 0000.0001) %MON dynstat_vvel_sd              =   1.3384461436338E-02
(PID.TID 0000.0001) %MON dynstat_vvel_del2            =   1.1347239349132E-04
(PID.TID 0000.0001) %MON dynstat_wvel_max             =   2.4883764585070E-04
(PID.TID 0000.0001) %MON dynstat_wvel_min             =  -3.2761717020862E-04
(PID.TID 0000.0001) %MON dynstat_wvel_mean            =   2.3487409032471E-22
(PID.TID 0000.0001) %MON dynstat_wvel_sd              =   3.0690419534249E-05
(PID.TID 0000.0001) %MON dynstat_wvel_del2            =   3.2342427194968E-07
(PID.TID 0000.0001) %MON dynstat_theta_max            =   2.9525730380723E+01
(PID.TID 0000.0001) %MON dynstat_theta_min            =  -2.1290729369709E+00
(PID.TID 0000.0001) %MON dynstat_theta_mean           =   3.5980239077702E+00
(PID.TID 0000.0001) %MON dynstat_theta_sd             =   4.3649202402056E+00
(PID.TID 0000.0001) %MON dynstat_theta_del2           =   5.0405104445380E-03
(PID.TID 0000.0001) %MON dynstat_salt_max             =   3.7426911032558E+01
(PID.TID 0000.0001) %MON dynstat_salt_min             =   2.9786108451406E+01
(PID.TID 0000.0001) %MON dynstat_salt_mean            =   3.4716314095940E+01
(PID.TID 0000.0001) %MON dynstat_salt_sd              =   2.9598561856020E-01
(PID.TID 0000.0001) %MON dynstat_salt_del2            =   1.0025618991793E-03
(PID.TID 0000.0001) %MON forcing_qnet_max             =   4.3349861883348E+02
(PID.TID 0000.0001) %MON forcing_qnet_min             =  -1.8363628904281E+02
(PID.TID 0000.0001) %MON forcing_qnet_mean            =  -1.6609392755803E+01
(PID.TID 0000.0001) %MON forcing_qnet_sd              =   1.1133868089886E+02
(PID.TID 0000.0001) %MON forcing_qnet_del2            =   1.0023289164570E+00
(PID.TID 0000.0001) %MON forcing_qsw_max              =   0.0000000000000E+00
(PID.TID 0000.0001) %MON forcing_qsw_min              =   0.0000000000000E+00
(PID.TID 0000.0001) %MON forcing_qsw_mean             =   0.0000000000000E+00
(PID.TID 0000.0001) %MON forcing_qsw_sd               =   0.0000000000000E+00
(PID.TID 0000.0001) %MON forcing_qsw_del2             =   0.0000000000000E+00
(PID.TID 0000.0001) %MON forcing_empmr_max            =   0.0000000000000E+00
(PID.TID 0000.0001) %MON forcing_empmr_min            =   0.0000000000000E+00
(PID.TID 0000.0001) %MON forcing_empmr_mean           =   0.0000000000000E+00
(PID.TID 0000.0001) %MON forcing_empmr_sd             =   0.0000000000000E+00
(PID.TID 0000.0001) %MON forcing_empmr_del2           =   0.0000000000000E+00
(PID.TID 0000.0001) %MON forcing_fu_max               =   2.6926738840918E-01
(PID.TID 0000.0001) %MON forcing_fu_min               =  -1.6228962689638E-01
(PID.TID 0000.0001) %MON forcing_fu_mean              =   1.5999534083732E-02
(PID.TID 0000.0001) %MON forcing_fu_sd                =   8.9952414368557E-02
(PID.TID 0000.0001) %MON forcing_fu_del2              =   6.6239345109877E-04
(PID.TID 0000.0001) %MON forcing_fv_max               =   2.0913783388753E-01
(PID.TID 0000.0001) %MON forcing_fv_min               =  -1.5294758807267E-01
(PID.TID 0000.0001) %MON forcing_fv_mean              =  -5.3490044569901E-03
(PID.TID 0000.0001) %MON forcing_fv_sd                =   4.4047630343360E-02
(PID.TID 0000.0001) %MON forcing_fv_del2              =   3.5565230039706E-04
(PID.TID 0000.0001) %MON trAdv_CFL_u_max              =   2.4591990626859E-02
(PID.TID 0000.0001) %MON trAdv_CFL_v_max              =   1.2176846993789E-02
(PID.TID 0000.0001) %MON trAdv_CFL_w_max              =   7.3648480657365E-02
(PID.TID 0000.0001) %MON advcfl_uvel_max              =   2.4129201017193E-02
(PID.TID 0000.0001) %MON advcfl_vvel_max              =   1.3709732921722E-02
(PID.TID 0000.0001) %MON advcfl_wvel_max              =   1.5894952270890E-01
(PID.TID 0000.0001) %MON advcfl_W_hf_max              =   6.4416764530919E-02
(PID.TID 0000.0001) %MON pe_b_mean                    =   1.5956600244407E-04
(PID.TID 0000.0001) %MON ke_max                       =   1.0650129146392E-02
(PID.TID 0000.0001) %MON ke_mean                      =   2.4899526008967E-04
(PID.TID 0000.0001) %MON ke_vol                       =   1.3226782436723E+18
(PID.TID 0000.0001) %MON vort_r_min                   =  -3.7406075545048E-07
(PID.TID 0000.0001) %MON vort_r_max                   =   5.0967426693043E-07
(PID.TID 0000.0001) %MON vort_a_mean                  =  -2.5205769741443E-05
(PID.TID 0000.0001) %MON vort_a_sd                    =   7.3401342442448E-05
(PID.TID 0000.0001) %MON vort_p_mean                  =  -3.1758669995945E-05
(PID.TID 0000.0001) %MON vort_p_sd                    =   1.3126007742951E-04
(PID.TID 0000.0001) %MON surfExpan_theta_mean         =   8.2370462713945E-05
(PID.TID 0000.0001) %MON surfExpan_salt_mean          =   4.2879052653176E-06
(PID.TID 0000.0001) // =======================================================
(PID.TID 0000.0001) // End MONITOR dynamic field statistics
(PID.TID 0000.0001) // =======================================================
(PID.TID 0000.0001) // =======================================================
(PID.TID 0000.0001) // Begin MONITOR EXF statistics
(PID.TID 0000.0001) // =======================================================
(PID.TID 0000.0001) %MON exf_tsnumber                 =                    16
(PID.TID 0000.0001) %MON exf_time_sec                 =   6.9120000000000E+05
(PID.TID 0000.0001) %MON exf_ustress_max              =   2.6991551826077E-01
(PID.TID 0000.0001) %MON exf_ustress_min              =  -1.6497671532054E-01
(PID.TID 0000.0001) %MON exf_ustress_mean             =   1.4984558329698E-02
(PID.TID 0000.0001) %MON exf_ustress_sd               =   8.8782411063776E-02
(PID.TID 0000.0001) %MON exf_ustress_del2             =   7.0458727440104E-04
(PID.TID 0000.0001) %MON exf_vstress_max              =   2.1947684763901E-01
(PID.TID 0000.0001) %MON exf_vstress_min              =  -1.8238038185143E-01
(PID.TID 0000.0001) %MON exf_vstress_mean             =  -5.5409717596737E-03
(PID.TID 0000.0001) %MON exf_vstress_sd               =   4.5524403952399E-02
(PID.TID 0000.0001) %MON exf_vstress_del2             =   4.7134817276780E-04
(PID.TID 0000.0001) %MON exf_hflux_max                =   4.3400580621535E+02
(PID.TID 0000.0001) %MON exf_hflux_min                =  -1.8341024263443E+02
(PID.TID 0000.0001) %MON exf_hflux_mean               =  -1.6603338583631E+01
(PID.TID 0000.0001) %MON exf_hflux_sd                 =   1.1124236555132E+02
(PID.TID 0000.0001) %MON exf_hflux_del2               =   1.1809927511000E+00
(PID.TID 0000.0001) %MON exf_climsst_max              =   2.9471471786499E+01
(PID.TID 0000.0001) %MON exf_climsst_min              =  -1.9000000000000E+00
(PID.TID 0000.0001) %MON exf_climsst_mean             =   1.8426590870872E+01
(PID.TID 0000.0001) %MON exf_climsst_sd               =   9.1884504554686E+00
(PID.TID 0000.0001) %MON exf_climsst_del2             =   2.4803452547448E-02
(PID.TID 0000.0001) %MON exf_climsss_max              =   3.7463853405368E+01
(PID.TID 0000.0001) %MON exf_climsss_min              =   2.9708572664568E+01
(PID.TID 0000.0001) %MON exf_climsss_mean             =   3.4848390435874E+01
(PID.TID 0000.0001) %MON exf_climsss_sd               =   9.6362590648411E-01
(PID.TID 0000.0001) %MON exf_climsss_del2             =   7.2561999637252E-03
(PID.TID 0000.0001) // =======================================================
(PID.TID 0000.0001) // End MONITOR EXF statistics
(PID.TID 0000.0001) // =======================================================
 cg2d: Sum(rhs),rhsMax =  -5.09814412907872E-13  9.76269586763470E+00
(PID.TID 0000.0001)      cg2d_init_res =   8.02509446037038E-01
(PID.TID 0000.0001)      cg2d_iters(min,last) =      -1      25
(PID.TID 0000.0001)      cg2d_last_res =   3.57137725220627E-14
(PID.TID 0000.0001) // =======================================================
(PID.TID 0000.0001) // Begin MONITOR dynamic field statistics
(PID.TID 0000.0001) // =======================================================
(PID.TID 0000.0001) %MON time_tsnumber                =                    17
(PID.TID 0000.0001) %MON time_secondsf                =   7.3440000000000E+05
(PID.TID 0000.0001) %MON dynstat_eta_max              =   1.1772728614046E+00
(PID.TID 0000.0001) %MON dynstat_eta_min              =  -1.0764021254033E+00
(PID.TID 0000.0001) %MON dynstat_eta_mean             =   3.3327400605384E-16
(PID.TID 0000.0001) %MON dynstat_eta_sd               =   3.5941403116181E-01
(PID.TID 0000.0001) %MON dynstat_eta_del2             =   2.0327869912220E-03
(PID.TID 0000.0001) %MON dynstat_uvel_max             =   1.5498015700183E-01
(PID.TID 0000.0001) %MON dynstat_uvel_min             =  -1.2416045508993E-01
(PID.TID 0000.0001) %MON dynstat_uvel_mean            =  -9.9012294004817E-03
(PID.TID 0000.0001) %MON dynstat_uvel_sd              =   1.6629108405301E-02
(PID.TID 0000.0001) %MON dynstat_uvel_del2            =   1.0937489987162E-04
(PID.TID 0000.0001) %MON dynstat_vvel_max             =   1.4669062870165E-01
(PID.TID 0000.0001) %MON dynstat_vvel_min             =  -1.0240099378866E-01
(PID.TID 0000.0001) %MON dynstat_vvel_mean            =   2.9294598988406E-03
(PID.TID 0000.0001) %MON dynstat_vvel_sd              =   1.3177224556626E-02
(PID.TID 0000.0001) %MON dynstat_vvel_del2            =   1.1189339255538E-04
(PID.TID 0000.0001) %MON dynstat_wvel_max             =   2.5456378778222E-04
(PID.TID 0000.0001) %MON dynstat_wvel_min             =  -3.1872146295069E-04
(PID.TID 0000.0001) %MON dynstat_wvel_mean            =  -1.1273956335586E-21
(PID.TID 0000.0001) %MON dynstat_wvel_sd              =   2.9569907100045E-05
(PID.TID 0000.0001) %MON dynstat_wvel_del2            =   3.0775796184967E-07
(PID.TID 0000.0001) %MON dynstat_theta_max            =   2.9490883807972E+01
(PID.TID 0000.0001) %MON dynstat_theta_min            =  -2.1147468662483E+00
(PID.TID 0000.0001) %MON dynstat_theta_mean           =   3.5972247361150E+00
(PID.TID 0000.0001) %MON dynstat_theta_sd             =   4.3620259416543E+00
(PID.TID 0000.0001) %MON dynstat_theta_del2           =   5.0169900574568E-03
(PID.TID 0000.0001) %MON dynstat_salt_max             =   3.7425386250468E+01
(PID.TID 0000.0001) %MON dynstat_salt_min             =   2.9785928923027E+01
(PID.TID 0000.0001) %MON dynstat_salt_mean            =   3.4716274449214E+01
(PID.TID 0000.0001) %MON dynstat_salt_sd              =   2.9595457792758E-01
(PID.TID 0000.0001) %MON dynstat_salt_del2            =   1.0023136024033E-03
(PID.TID 0000.0001) %MON forcing_qnet_max             =   4.3400580621535E+02
(PID.TID 0000.0001) %MON forcing_qnet_min             =  -1.8341024263443E+02
(PID.TID 0000.0001) %MON forcing_qnet_mean            =  -1.6603338583631E+01
(PID.TID 0000.0001) %MON forcing_qnet_sd              =   1.1124236555132E+02
(PID.TID 0000.0001) %MON forcing_qnet_del2            =   1.0034235387878E+00
(PID.TID 0000.0001) %MON forcing_qsw_max              =   0.0000000000000E+00
(PID.TID 0000.0001) %MON forcing_qsw_min              =   0.0000000000000E+00
(PID.TID 0000.0001) %MON forcing_qsw_mean             =   0.0000000000000E+00
(PID.TID 0000.0001) %MON forcing_qsw_sd               =   0.0000000000000E+00
(PID.TID 0000.0001) %MON forcing_qsw_del2             =   0.0000000000000E+00
(PID.TID 0000.0001) %MON forcing_empmr_max            =   0.0000000000000E+00
(PID.TID 0000.0001) %MON forcing_empmr_min            =   0.0000000000000E+00
(PID.TID 0000.0001) %MON forcing_empmr_mean           =   0.0000000000000E+00
(PID.TID 0000.0001) %MON forcing_empmr_sd             =   0.0000000000000E+00
(PID.TID 0000.0001) %MON forcing_empmr_del2           =   0.0000000000000E+00
(PID.TID 0000.0001) %MON forcing_fu_max               =   2.6907934176345E-01
(PID.TID 0000.0001) %MON forcing_fu_min               =  -1.6259238496423E-01
(PID.TID 0000.0001) %MON forcing_fu_mean              =   1.5995569073005E-02
(PID.TID 0000.0001) %MON forcing_fu_sd                =   8.9978776830267E-02
(PID.TID 0000.0001) %MON forcing_fu_del2              =   6.6436934173492E-04
(PID.TID 0000.0001) %MON forcing_fv_max               =   2.0982362402062E-01
(PID.TID 0000.0001) %MON forcing_fv_min               =  -1.5317302737986E-01
(PID.TID 0000.0001) %MON forcing_fv_mean              =  -5.3156696283499E-03
(PID.TID 0000.0001) %MON forcing_fv_sd                =   4.4140922434647E-02
(PID.TID 0000.0001) %MON forcing_fv_del2              =   3.5684348069104E-04
(PID.TID 0000.0001) %MON trAdv_CFL_u_max              =   2.4134101830494E-02
(PID.TID 0000.0001) %MON trAdv_CFL_v_max              =   1.3045937751221E-02
(PID.TID 0000.0001) %MON trAdv_CFL_w_max              =   7.9474761354452E-02
(PID.TID 0000.0001) %MON advcfl_uvel_max              =   2.2230065759047E-02
(PID.TID 0000.0001) %MON advcfl_vvel_max              =   1.4249818260947E-02
(PID.TID 0000.0001) %MON advcfl_wvel_max              =   1.6632255547949E-01
(PID.TID 0000.0001) %MON advcfl_W_hf_max              =   6.7597376324183E-02
(PID.TID 0000.0001) %MON pe_b_mean                    =   1.6529939163971E-04
(PID.TID 0000.0001) %MON ke_max                       =   1.1319225641521E-02
(PID.TID 0000.0001) %MON ke_mean                      =   2.5197598581539E-04
(PID.TID 0000.0001) %MON ke_vol                       =   1.3226782436723E+18
(PID.TID 0000.0001) %MON vort_r_min                   =  -3.8985883742101E-07
(PID.TID 0000.0001) %MON vort_r_max                   =   4.6921402866315E-07
(PID.TID 0000.0001) %MON vort_a_mean                  =  -2.5205769696559E-05
(PID.TID 0000.0001) %MON vort_a_sd                    =   7.3401345373982E-05
(PID.TID 0000.0001) %MON vort_p_mean                  =  -3.1758669939393E-05
(PID.TID 0000.0001) %MON vort_p_sd                    =   1.3126008060784E-04
(PID.TID 0000.0001) %MON surfExpan_theta_mean         =   6.9237861292216E-05
(PID.TID 0000.0001) %MON surfExpan_salt_mean          =   3.0622882695702E-06
(PID.TID 0000.0001) // =======================================================
(PID.TID 0000.0001) // End MONITOR dynamic field statistics
(PID.TID 0000.0001) // =======================================================
(PID.TID 0000.0001) // =======================================================
(PID.TID 0000.0001) // Begin MONITOR EXF statistics
(PID.TID 0000.0001) // =======================================================
(PID.TID 0000.0001) %MON exf_tsnumber                 =                    17
(PID.TID 0000.0001) %MON exf_time_sec                 =   7.3440000000000E+05
(PID.TID 0000.0001) %MON exf_ustress_max              =   2.6995485155813E-01
(PID.TID 0000.0001) %MON exf_ustress_min              =  -1.6537030569969E-01
(PID.TID 0000.0001) %MON exf_ustress_mean             =   1.4981669518065E-02
(PID.TID 0000.0001) %MON exf_ustress_sd               =   8.8813057979411E-02
(PID.TID 0000.0001) %MON exf_ustress_del2             =   7.0656870897861E-04
(PID.TID 0000.0001) %MON exf_vstress_max              =   2.2038647917009E-01
(PID.TID 0000.0001) %MON exf_vstress_min              =  -1.8209748306582E-01
(PID.TID 0000.0001) %MON exf_vstress_mean             =  -5.5099672189310E-03
(PID.TID 0000.0001) %MON exf_vstress_sd               =   4.5618812264159E-02
(PID.TID 0000.0001) %MON exf_vstress_del2             =   4.7273422959817E-04
(PID.TID 0000.0001) %MON exf_hflux_max                =   4.3451299359722E+02
(PID.TID 0000.0001) %MON exf_hflux_min                =  -1.8318419622606E+02
(PID.TID 0000.0001) %MON exf_hflux_mean               =  -1.6597284411458E+01
(PID.TID 0000.0001) %MON exf_hflux_sd                 =   1.1114666987015E+02
(PID.TID 0000.0001) %MON exf_hflux_del2               =   1.1815293550499E+00
(PID.TID 0000.0001) %MON exf_climsst_max              =   2.9469623565674E+01
(PID.TID 0000.0001) %MON exf_climsst_min              =  -1.9000000000000E+00
(PID.TID 0000.0001) %MON exf_climsst_mean             =   1.8430458021528E+01
(PID.TID 0000.0001) %MON exf_climsst_sd               =   9.1874603458912E+00
(PID.TID 0000.0001) %MON exf_climsst_del2             =   2.4910285815413E-02
(PID.TID 0000.0001) %MON exf_climsss_max              =   3.7464638371621E+01
(PID.TID 0000.0001) %MON exf_climsss_min              =   2.9711519118278E+01
(PID.TID 0000.0001) %MON exf_climsss_mean             =   3.4848492758496E+01
(PID.TID 0000.0001) %MON exf_climsss_sd               =   9.6346690421424E-01
(PID.TID 0000.0001) %MON exf_climsss_del2             =   7.2928369580637E-03
(PID.TID 0000.0001) // =======================================================
(PID.TID 0000.0001) // End MONITOR EXF statistics
(PID.TID 0000.0001) // =======================================================
 cg2d: Sum(rhs),rhsMax =  -7.60280727263307E-13  9.63804624662821E+00
(PID.TID 0000.0001)      cg2d_init_res =   7.94966119063840E-01
(PID.TID 0000.0001)      cg2d_iters(min,last) =      -1      25
(PID.TID 0000.0001)      cg2d_last_res =   2.83414320012451E-14
(PID.TID 0000.0001) // =======================================================
(PID.TID 0000.0001) // Begin MONITOR dynamic field statistics
(PID.TID 0000.0001) // =======================================================
(PID.TID 0000.0001) %MON time_tsnumber                =                    18
(PID.TID 0000.0001) %MON time_secondsf                =   7.7760000000000E+05
(PID.TID 0000.0001) %MON dynstat_eta_max              =   1.1631571058304E+00
(PID.TID 0000.0001) %MON dynstat_eta_min              =  -1.0857972297529E+00
(PID.TID 0000.0001) %MON dynstat_eta_mean             =   4.4738412769184E-16
(PID.TID 0000.0001) %MON dynstat_eta_sd               =   3.6389526330404E-01
(PID.TID 0000.0001) %MON dynstat_eta_del2             =   2.0052032778688E-03
(PID.TID 0000.0001) %MON dynstat_uvel_max             =   1.6093269830821E-01
(PID.TID 0000.0001) %MON dynstat_uvel_min             =  -1.2984830272112E-01
(PID.TID 0000.0001) %MON dynstat_uvel_mean            =  -9.7161234161005E-03
(PID.TID 0000.0001) %MON dynstat_uvel_sd              =   1.6998238933409E-02
(PID.TID 0000.0001) %MON dynstat_uvel_del2            =   1.1026100755046E-04
(PID.TID 0000.0001) %MON dynstat_vvel_max             =   1.4791932289823E-01
(PID.TID 0000.0001) %MON dynstat_vvel_min             =  -1.1093089782881E-01
(PID.TID 0000.0001) %MON dynstat_vvel_mean            =   2.6566260891911E-03
(PID.TID 0000.0001) %MON dynstat_vvel_sd              =   1.3028470300975E-02
(PID.TID 0000.0001) %MON dynstat_vvel_del2            =   1.1035694784317E-04
(PID.TID 0000.0001) %MON dynstat_wvel_max             =   2.5819487979362E-04
(PID.TID 0000.0001) %MON dynstat_wvel_min             =  -3.0697719749123E-04
(PID.TID 0000.0001) %MON dynstat_wvel_mean            =  -1.5971438142080E-21
(PID.TID 0000.0001) %MON dynstat_wvel_sd              =   2.8492313526434E-05
(PID.TID 0000.0001) %MON dynstat_wvel_del2            =   2.9322519817566E-07
(PID.TID 0000.0001) %MON dynstat_theta_max            =   2.9452263303319E+01
(PID.TID 0000.0001) %MON dynstat_theta_min            =  -2.0963607481362E+00
(PID.TID 0000.0001) %MON dynstat_theta_mean           =   3.5965724773734E+00
(PID.TID 0000.0001) %MON dynstat_theta_sd             =   4.3594353165817E+00
(PID.TID 0000.0001) %MON dynstat_theta_del2           =   4.9953902303934E-03
(PID.TID 0000.0001) %MON dynstat_salt_max             =   3.7423939793018E+01
(PID.TID 0000.0001) %MON dynstat_salt_min             =   2.9785656454439E+01
(PID.TID 0000.0001) %MON dynstat_salt_mean            =   3.4716248191282E+01
(PID.TID 0000.0001) %MON dynstat_salt_sd              =   2.9592528196891E-01
(PID.TID 0000.0001) %MON dynstat_salt_del2            =   1.0021367165520E-03
(PID.TID 0000.0001) %MON forcing_qnet_max             =   4.3451299359722E+02
(PID.TID 0000.0001) %MON forcing_qnet_min             =  -1.8318419622606E+02
(PID.TID 0000.0001) %MON forcing_qnet_mean            =  -1.6597284411458E+01
(PID.TID 0000.0001) %MON forcing_qnet_sd              =   1.1114666987015E+02
(PID.TID 0000.0001) %MON forcing_qnet_del2            =   1.0045582480047E+00
(PID.TID 0000.0001) %MON forcing_qsw_max              =   0.0000000000000E+00
(PID.TID 0000.0001) %MON forcing_qsw_min              =   0.0000000000000E+00
(PID.TID 0000.0001) %MON forcing_qsw_mean             =   0.0000000000000E+00
(PID.TID 0000.0001) %MON forcing_qsw_sd               =   0.0000000000000E+00
(PID.TID 0000.0001) %MON forcing_qsw_del2             =   0.0000000000000E+00
(PID.TID 0000.0001) %MON forcing_empmr_max            =   0.0000000000000E+00
(PID.TID 0000.0001) %MON forcing_empmr_min            =   0.0000000000000E+00
(PID.TID 0000.0001) %MON forcing_empmr_mean           =   0.0000000000000E+00
(PID.TID 0000.0001) %MON forcing_empmr_sd             =   0.0000000000000E+00
(PID.TID 0000.0001) %MON forcing_empmr_del2           =   0.0000000000000E+00
(PID.TID 0000.0001) %MON forcing_fu_max               =   2.6889129511772E-01
(PID.TID 0000.0001) %MON forcing_fu_min               =  -1.6289514303207E-01
(PID.TID 0000.0001) %MON forcing_fu_mean              =   1.5991604062278E-02
(PID.TID 0000.0001) %MON forcing_fu_sd                =   9.0007591439967E-02
(PID.TID 0000.0001) %MON forcing_fu_del2              =   6.6644519463725E-04
(PID.TID 0000.0001) %MON forcing_fv_max               =   2.1050941415371E-01
(PID.TID 0000.0001) %MON forcing_fv_min               =  -1.5339846668705E-01
(PID.TID 0000.0001) %MON forcing_fv_mean              =  -5.2823347997097E-03
(PID.TID 0000.0001) %MON forcing_fv_sd                =   4.4237249799067E-02
(PID.TID 0000.0001) %MON forcing_fv_del2              =   3.5810972320471E-04
(PID.TID 0000.0001) %MON trAdv_CFL_u_max              =   2.2234580844394E-02
(PID.TID 0000.0001) %MON trAdv_CFL_v_max              =   1.3550619228519E-02
(PID.TID 0000.0001) %MON trAdv_CFL_w_max              =   8.3161277739743E-02
(PID.TID 0000.0001) %MON advcfl_uvel_max              =   2.2505049647968E-02
(PID.TID 0000.0001) %MON advcfl_vvel_max              =   1.4369176049202E-02
(PID.TID 0000.0001) %MON advcfl_wvel_max              =   1.6863265851279E-01
(PID.TID 0000.0001) %MON advcfl_W_hf_max              =   6.8108672686215E-02
(PID.TID 0000.0001) %MON pe_b_mean                    =   1.6944704724608E-04
(PID.TID 0000.0001) %MON ke_max                       =   1.1913523545811E-02
(PID.TID 0000.0001) %MON ke_mean                      =   2.5353129551497E-04
(PID.TID 0000.0001) %MON ke_vol                       =   1.3226782436723E+18
(PID.TID 0000.0001) %MON vort_r_min                   =  -4.1920797808649E-07
(PID.TID 0000.0001) %MON vort_r_max                   =   4.1948484077210E-07
(PID.TID 0000.0001) %MON vort_a_mean                  =  -2.5205769645784E-05
(PID.TID 0000.0001) %MON vort_a_sd                    =   7.3401370746777E-05
(PID.TID 0000.0001) %MON vort_p_mean                  =  -3.1758669875417E-05
(PID.TID 0000.0001) %MON vort_p_sd                    =   1.3126017387140E-04
(PID.TID 0000.0001) %MON surfExpan_theta_mean         =   5.6596701641485E-05
(PID.TID 0000.0001) %MON surfExpan_salt_mean          =   1.9187666729073E-06
(PID.TID 0000.0001) // =======================================================
(PID.TID 0000.0001) // End MONITOR dynamic field statistics
(PID.TID 0000.0001) // =======================================================
(PID.TID 0000.0001) // =======================================================
(PID.TID 0000.0001) // Begin MONITOR EXF statistics
(PID.TID 0000.0001) // =======================================================
(PID.TID 0000.0001) %MON exf_tsnumber                 =                    18
(PID.TID 0000.0001) %MON exf_time_sec                 =   7.7760000000000E+05
(PID.TID 0000.0001) %MON exf_ustress_max              =   2.6999418485549E-01
(PID.TID 0000.0001) %MON exf_ustress_min              =  -1.6576389607883E-01
(PID.TID 0000.0001) %MON exf_ustress_mean             =   1.4978780706431E-02
(PID.TID 0000.0001) %MON exf_ustress_sd               =   8.8846191554903E-02
(PID.TID 0000.0001) %MON exf_ustress_del2             =   7.0866243955356E-04
(PID.TID 0000.0001) %MON exf_vstress_max              =   2.2129611070118E-01
(PID.TID 0000.0001) %MON exf_vstress_min              =  -1.8181458428021E-01
(PID.TID 0000.0001) %MON exf_vstress_mean             =  -5.4789626781882E-03
(PID.TID 0000.0001) %MON exf_vstress_sd               =   4.5716476651692E-02
(PID.TID 0000.0001) %MON exf_vstress_del2             =   4.7423269372103E-04
(PID.TID 0000.0001) %MON exf_hflux_max                =   4.3502018097908E+02
(PID.TID 0000.0001) %MON exf_hflux_min                =  -1.8295814981768E+02
(PID.TID 0000.0001) %MON exf_hflux_mean               =  -1.6591230239286E+01
(PID.TID 0000.0001) %MON exf_hflux_sd                 =   1.1105159545728E+02
(PID.TID 0000.0001) %MON exf_hflux_del2               =   1.1821019889410E+00
(PID.TID 0000.0001) %MON exf_climsst_max              =   2.9467775344849E+01
(PID.TID 0000.0001) %MON exf_climsst_min              =  -1.9000000000000E+00
(PID.TID 0000.0001) %MON exf_climsst_mean             =   1.8434328397312E+01
(PID.TID 0000.0001) %MON exf_climsst_sd               =   9.1865236651676E+00
(PID.TID 0000.0001) %MON exf_climsst_del2             =   2.5025225952218E-02
(PID.TID 0000.0001) %MON exf_climsss_max              =   3.7465423337875E+01
(PID.TID 0000.0001) %MON exf_climsss_min              =   2.9714465571988E+01
(PID.TID 0000.0001) %MON exf_climsss_mean             =   3.4848595081118E+01
(PID.TID 0000.0001) %MON exf_climsss_sd               =   9.6332891337454E-01
(PID.TID 0000.0001) %MON exf_climsss_del2             =   7.3319796720651E-03
(PID.TID 0000.0001) // =======================================================
(PID.TID 0000.0001) // End MONITOR EXF statistics
(PID.TID 0000.0001) // =======================================================
 cg2d: Sum(rhs),rhsMax =  -8.56203996590921E-13  9.34829007243764E+00
(PID.TID 0000.0001)      cg2d_init_res =   8.01532798166213E-01
(PID.TID 0000.0001)      cg2d_iters(min,last) =      -1      25
(PID.TID 0000.0001)      cg2d_last_res =   2.81517474936486E-14
(PID.TID 0000.0001) // =======================================================
(PID.TID 0000.0001) // Begin MONITOR dynamic field statistics
(PID.TID 0000.0001) // =======================================================
(PID.TID 0000.0001) %MON time_tsnumber                =                    19
(PID.TID 0000.0001) %MON time_secondsf                =   8.2080000000000E+05
(PID.TID 0000.0001) %MON dynstat_eta_max              =   1.1299630630737E+00
(PID.TID 0000.0001) %MON dynstat_eta_min              =  -1.0681489335293E+00
(PID.TID 0000.0001) %MON dynstat_eta_mean             =   3.8217834389870E-16
(PID.TID 0000.0001) %MON dynstat_eta_sd               =   3.6679233386134E-01
(PID.TID 0000.0001) %MON dynstat_eta_del2             =   1.9817398563386E-03
(PID.TID 0000.0001) %MON dynstat_uvel_max             =   1.6569156739136E-01
(PID.TID 0000.0001) %MON dynstat_uvel_min             =  -1.3506325555774E-01
(PID.TID 0000.0001) %MON dynstat_uvel_mean            =  -9.4271460061477E-03
(PID.TID 0000.0001) %MON dynstat_uvel_sd              =   1.7280515783289E-02
(PID.TID 0000.0001) %MON dynstat_uvel_del2            =   1.1092781356413E-04
(PID.TID 0000.0001) %MON dynstat_vvel_max             =   1.4448120566965E-01
(PID.TID 0000.0001) %MON dynstat_vvel_min             =  -1.2341758112904E-01
(PID.TID 0000.0001) %MON dynstat_vvel_mean            =   2.4318721967849E-03
(PID.TID 0000.0001) %MON dynstat_vvel_sd              =   1.2936421182828E-02
(PID.TID 0000.0001) %MON dynstat_vvel_del2            =   1.0905652132684E-04
(PID.TID 0000.0001) %MON dynstat_wvel_max             =   2.5985236969880E-04
(PID.TID 0000.0001) %MON dynstat_wvel_min             =  -2.9293289932096E-04
(PID.TID 0000.0001) %MON dynstat_wvel_mean            =   1.5971438142080E-21
(PID.TID 0000.0001) %MON dynstat_wvel_sd              =   2.7504193065118E-05
(PID.TID 0000.0001) %MON dynstat_wvel_del2            =   2.8072202551951E-07
(PID.TID 0000.0001) %MON dynstat_theta_max            =   2.9443519616048E+01
(PID.TID 0000.0001) %MON dynstat_theta_min            =  -2.0753104788214E+00
(PID.TID 0000.0001) %MON dynstat_theta_mean           =   3.5960596232303E+00
(PID.TID 0000.0001) %MON dynstat_theta_sd             =   4.3571669385418E+00
(PID.TID 0000.0001) %MON dynstat_theta_del2           =   4.9758658879582E-03
(PID.TID 0000.0001) %MON dynstat_salt_max             =   3.7422567330272E+01
(PID.TID 0000.0001) %MON dynstat_salt_min             =   2.9785382189374E+01
(PID.TID 0000.0001) %MON dynstat_salt_mean            =   3.4716234243018E+01
(PID.TID 0000.0001) %MON dynstat_salt_sd              =   2.9589840059437E-01
(PID.TID 0000.0001) %MON dynstat_salt_del2            =   1.0020097644606E-03
(PID.TID 0000.0001) %MON forcing_qnet_max             =   4.3502018097908E+02
(PID.TID 0000.0001) %MON forcing_qnet_min             =  -1.8295814981768E+02
(PID.TID 0000.0001) %MON forcing_qnet_mean            =  -1.6591230239286E+01
(PID.TID 0000.0001) %MON forcing_qnet_sd              =   1.1105159545728E+02
(PID.TID 0000.0001) %MON forcing_qnet_del2            =   1.0057329084247E+00
(PID.TID 0000.0001) %MON forcing_qsw_max              =   0.0000000000000E+00
(PID.TID 0000.0001) %MON forcing_qsw_min              =   0.0000000000000E+00
(PID.TID 0000.0001) %MON forcing_qsw_mean             =   0.0000000000000E+00
(PID.TID 0000.0001) %MON forcing_qsw_sd               =   0.0000000000000E+00
(PID.TID 0000.0001) %MON forcing_qsw_del2             =   0.0000000000000E+00
(PID.TID 0000.0001) %MON forcing_empmr_max            =   0.0000000000000E+00
(PID.TID 0000.0001) %MON forcing_empmr_min            =   0.0000000000000E+00
(PID.TID 0000.0001) %MON forcing_empmr_mean           =   0.0000000000000E+00
(PID.TID 0000.0001) %MON forcing_empmr_sd             =   0.0000000000000E+00
(PID.TID 0000.0001) %MON forcing_empmr_del2           =   0.0000000000000E+00
(PID.TID 0000.0001) %MON forcing_fu_max               =   2.6870324847198E-01
(PID.TID 0000.0001) %MON forcing_fu_min               =  -1.6319790109992E-01
(PID.TID 0000.0001) %MON forcing_fu_mean              =   1.5987639051551E-02
(PID.TID 0000.0001) %MON forcing_fu_sd                =   9.0038855843416E-02
(PID.TID 0000.0001) %MON forcing_fu_del2              =   6.6862007875319E-04
(PID.TID 0000.0001) %MON forcing_fv_max               =   2.1119520428681E-01
(PID.TID 0000.0001) %MON forcing_fv_min               =  -1.5362390599424E-01
(PID.TID 0000.0001) %MON forcing_fv_mean              =  -5.2489999710694E-03
(PID.TID 0000.0001) %MON forcing_fv_sd                =   4.4336592652977E-02
(PID.TID 0000.0001) %MON forcing_fv_del2              =   3.5945023466941E-04
(PID.TID 0000.0001) %MON trAdv_CFL_u_max              =   2.2509620584510E-02
(PID.TID 0000.0001) %MON trAdv_CFL_v_max              =   1.3636492180126E-02
(PID.TID 0000.0001) %MON trAdv_CFL_w_max              =   8.4316329256397E-02
(PID.TID 0000.0001) %MON advcfl_uvel_max              =   2.3170536439096E-02
(PID.TID 0000.0001) %MON advcfl_vvel_max              =   1.4035190530831E-02
(PID.TID 0000.0001) %MON advcfl_wvel_max              =   1.6533374435215E-01
(PID.TID 0000.0001) %MON advcfl_W_hf_max              =   6.7370657454075E-02
(PID.TID 0000.0001) %MON pe_b_mean                    =   1.7215581648081E-04
(PID.TID 0000.0001) %MON ke_max                       =   1.2490195998977E-02
(PID.TID 0000.0001) %MON ke_mean                      =   2.5382759971072E-04
(PID.TID 0000.0001) %MON ke_vol                       =   1.3226782436723E+18
(PID.TID 0000.0001) %MON vort_r_min                   =  -4.3799151605105E-07
(PID.TID 0000.0001) %MON vort_r_max                   =   3.7308410031324E-07
(PID.TID 0000.0001) %MON vort_a_mean                  =  -2.5205769595171E-05
(PID.TID 0000.0001) %MON vort_a_sd                    =   7.3401416363264E-05
(PID.TID 0000.0001) %MON vort_p_mean                  =  -3.1758669811646E-05
(PID.TID 0000.0001) %MON vort_p_sd                    =   1.3126034363904E-04
(PID.TID 0000.0001) %MON surfExpan_theta_mean         =   4.4700183370964E-05
(PID.TID 0000.0001) %MON surfExpan_salt_mean          =   8.7503836536159E-07
(PID.TID 0000.0001) // =======================================================
(PID.TID 0000.0001) // End MONITOR dynamic field statistics
(PID.TID 0000.0001) // =======================================================
(PID.TID 0000.0001) // =======================================================
(PID.TID 0000.0001) // Begin MONITOR EXF statistics
(PID.TID 0000.0001) // =======================================================
(PID.TID 0000.0001) %MON exf_tsnumber                 =                    19
(PID.TID 0000.0001) %MON exf_time_sec                 =   8.2080000000000E+05
(PID.TID 0000.0001) %MON exf_ustress_max              =   2.7003351815285E-01
(PID.TID 0000.0001) %MON exf_ustress_min              =  -1.6615748645798E-01
(PID.TID 0000.0001) %MON exf_ustress_mean             =   1.4975891894798E-02
(PID.TID 0000.0001) %MON exf_ustress_sd               =   8.8881809009303E-02
(PID.TID 0000.0001) %MON exf_ustress_del2             =   7.1086747388443E-04
(PID.TID 0000.0001) %MON exf_vstress_max              =   2.2220574223226E-01
(PID.TID 0000.0001) %MON exf_vstress_min              =  -1.8153168549461E-01
(PID.TID 0000.0001) %MON exf_vstress_mean             =  -5.4479581374455E-03
(PID.TID 0000.0001) %MON exf_vstress_sd               =   4.5817376293037E-02
(PID.TID 0000.0001) %MON exf_vstress_del2             =   4.7584250320031E-04
(PID.TID 0000.0001) %MON exf_hflux_max                =   4.3552736836095E+02
(PID.TID 0000.0001) %MON exf_hflux_min                =  -1.8273210340931E+02
(PID.TID 0000.0001) %MON exf_hflux_mean               =  -1.6585176067114E+01
(PID.TID 0000.0001) %MON exf_hflux_sd                 =   1.1095714390972E+02
(PID.TID 0000.0001) %MON exf_hflux_del2               =   1.1827106004394E+00
(PID.TID 0000.0001) %MON exf_climsst_max              =   2.9465927124023E+01
(PID.TID 0000.0001) %MON exf_climsst_min              =  -1.9000000000000E+00
(PID.TID 0000.0001) %MON exf_climsst_mean             =   1.8438200457355E+01
(PID.TID 0000.0001) %MON exf_climsst_sd               =   9.1856438469628E+00
(PID.TID 0000.0001) %MON exf_climsst_del2             =   2.5148271139989E-02
(PID.TID 0000.0001) %MON exf_climsss_max              =   3.7466208304128E+01
(PID.TID 0000.0001) %MON exf_climsss_min              =   2.9717412025698E+01
(PID.TID 0000.0001) %MON exf_climsss_mean             =   3.4848697403740E+01
(PID.TID 0000.0001) %MON exf_climsss_sd               =   9.6321194299537E-01
(PID.TID 0000.0001) %MON exf_climsss_del2             =   7.3735882009776E-03
(PID.TID 0000.0001) // =======================================================
(PID.TID 0000.0001) // End MONITOR EXF statistics
(PID.TID 0000.0001) // =======================================================
 cg2d: Sum(rhs),rhsMax =  -7.78044295657310E-13  9.12167905632681E+00
(PID.TID 0000.0001)      cg2d_init_res =   8.02324513658737E-01
(PID.TID 0000.0001)      cg2d_iters(min,last) =      -1      25
(PID.TID 0000.0001)      cg2d_last_res =   3.14565696591676E-14
(PID.TID 0000.0001) // =======================================================
(PID.TID 0000.0001) // Begin MONITOR dynamic field statistics
(PID.TID 0000.0001) // =======================================================
(PID.TID 0000.0001) %MON time_tsnumber                =                    20
(PID.TID 0000.0001) %MON time_secondsf                =   8.6400000000000E+05
(PID.TID 0000.0001) %MON dynstat_eta_max              =   1.0884793352945E+00
(PID.TID 0000.0001) %MON dynstat_eta_min              =  -1.0240014646491E+00
(PID.TID 0000.0001) %MON dynstat_eta_mean             =   5.1077863971295E-16
(PID.TID 0000.0001) %MON dynstat_eta_sd               =   3.6834212550780E-01
(PID.TID 0000.0001) %MON dynstat_eta_del2             =   1.9617383827006E-03
(PID.TID 0000.0001) %MON dynstat_uvel_max             =   1.6918545047124E-01
(PID.TID 0000.0001) %MON dynstat_uvel_min             =  -1.3978589286159E-01
(PID.TID 0000.0001) %MON dynstat_uvel_mean            =  -9.0500488123740E-03
(PID.TID 0000.0001) %MON dynstat_uvel_sd              =   1.7484186526642E-02
(PID.TID 0000.0001) %MON dynstat_uvel_del2            =   1.1144749586626E-04
(PID.TID 0000.0001) %MON dynstat_vvel_max             =   1.3628736560381E-01
(PID.TID 0000.0001) %MON dynstat_vvel_min             =  -1.3353890125702E-01
(PID.TID 0000.0001) %MON dynstat_vvel_mean            =   2.2636858611611E-03
(PID.TID 0000.0001) %MON dynstat_vvel_sd              =   1.2893754073984E-02
(PID.TID 0000.0001) %MON dynstat_vvel_del2            =   1.0812289944863E-04
(PID.TID 0000.0001) %MON dynstat_wvel_max             =   2.5975896911644E-04
(PID.TID 0000.0001) %MON dynstat_wvel_min             =  -2.7697356232963E-04
(PID.TID 0000.0001) %MON dynstat_wvel_mean            =   2.6305898116368E-21
(PID.TID 0000.0001) %MON dynstat_wvel_sd              =   2.6641230062618E-05
(PID.TID 0000.0001) %MON dynstat_wvel_del2            =   2.7090754679652E-07
(PID.TID 0000.0001) %MON dynstat_theta_max            =   2.9431867058983E+01
(PID.TID 0000.0001) %MON dynstat_theta_min            =  -2.0531967918882E+00
(PID.TID 0000.0001) %MON dynstat_theta_mean           =   3.5956760479472E+00
(PID.TID 0000.0001) %MON dynstat_theta_sd             =   4.3552327342299E+00
(PID.TID 0000.0001) %MON dynstat_theta_del2           =   4.9584645411631E-03
(PID.TID 0000.0001) %MON dynstat_salt_max             =   3.7421844928125E+01
(PID.TID 0000.0001) %MON dynstat_salt_min             =   2.9785194129027E+01
(PID.TID 0000.0001) %MON dynstat_salt_mean            =   3.4716231358454E+01
(PID.TID 0000.0001) %MON dynstat_salt_sd              =   2.9587429127505E-01
(PID.TID 0000.0001) %MON dynstat_salt_del2            =   1.0019566199393E-03
(PID.TID 0000.0001) %MON forcing_qnet_max             =   4.3552736836095E+02
(PID.TID 0000.0001) %MON forcing_qnet_min             =  -1.8273210340931E+02
(PID.TID 0000.0001) %MON forcing_qnet_mean            =  -1.6585176067114E+01
(PID.TID 0000.0001) %MON forcing_qnet_sd              =   1.1095714390972E+02
(PID.TID 0000.0001) %MON forcing_qnet_del2            =   1.0069473802317E+00
(PID.TID 0000.0001) %MON forcing_qsw_max              =   0.0000000000000E+00
(PID.TID 0000.0001) %MON forcing_qsw_min              =   0.0000000000000E+00
(PID.TID 0000.0001) %MON forcing_qsw_mean             =   0.0000000000000E+00
(PID.TID 0000.0001) %MON forcing_qsw_sd               =   0.0000000000000E+00
(PID.TID 0000.0001) %MON forcing_qsw_del2             =   0.0000000000000E+00
(PID.TID 0000.0001) %MON forcing_empmr_max            =   0.0000000000000E+00
(PID.TID 0000.0001) %MON forcing_empmr_min            =   0.0000000000000E+00
(PID.TID 0000.0001) %MON forcing_empmr_mean           =   0.0000000000000E+00
(PID.TID 0000.0001) %MON forcing_empmr_sd             =   0.0000000000000E+00
(PID.TID 0000.0001) %MON forcing_empmr_del2           =   0.0000000000000E+00
(PID.TID 0000.0001) %MON forcing_fu_max               =   2.6851520182625E-01
(PID.TID 0000.0001) %MON forcing_fu_min               =  -1.6350065916777E-01
(PID.TID 0000.0001) %MON forcing_fu_mean              =   1.5983674040824E-02
(PID.TID 0000.0001) %MON forcing_fu_sd                =   9.0072567489627E-02
(PID.TID 0000.0001) %MON forcing_fu_del2              =   6.7089303097274E-04
(PID.TID 0000.0001) %MON forcing_fv_max               =   2.1188099441990E-01
(PID.TID 0000.0001) %MON forcing_fv_min               =  -1.5384934530143E-01
(PID.TID 0000.0001) %MON forcing_fv_mean              =  -5.2156651424292E-03
(PID.TID 0000.0001) %MON forcing_fv_sd                =   4.4438930773077E-02
(PID.TID 0000.0001) %MON forcing_fv_del2              =   3.6086418741975E-04
(PID.TID 0000.0001) %MON trAdv_CFL_u_max              =   2.3175242540765E-02
(PID.TID 0000.0001) %MON trAdv_CFL_v_max              =   1.3270508470032E-02
(PID.TID 0000.0001) %MON trAdv_CFL_w_max              =   8.2666872176075E-02
(PID.TID 0000.0001) %MON advcfl_uvel_max              =   2.3659125849473E-02
(PID.TID 0000.0001) %MON advcfl_vvel_max              =   1.3239224675132E-02
(PID.TID 0000.0001) %MON advcfl_wvel_max              =   1.5616185453586E-01
(PID.TID 0000.0001) %MON advcfl_W_hf_max              =   6.4530984935619E-02
(PID.TID 0000.0001) %MON pe_b_mean                    =   1.7361369486439E-04
(PID.TID 0000.0001) %MON ke_max                       =   1.3120499506137E-02
(PID.TID 0000.0001) %MON ke_mean                      =   2.5302954684116E-04
(PID.TID 0000.0001) %MON ke_vol                       =   1.3226782436723E+18
(PID.TID 0000.0001) %MON vort_r_min                   =  -4.4516093630396E-07
(PID.TID 0000.0001) %MON vort_r_max                   =   3.8113615159083E-07
(PID.TID 0000.0001) %MON vort_a_mean                  =  -2.5205769549738E-05
(PID.TID 0000.0001) %MON vort_a_sd                    =   7.3401479636588E-05
(PID.TID 0000.0001) %MON vort_p_mean                  =  -3.1758669754402E-05
(PID.TID 0000.0001) %MON vort_p_sd                    =   1.3126057419671E-04
(PID.TID 0000.0001) %MON surfExpan_theta_mean         =   3.3771111578664E-05
(PID.TID 0000.0001) %MON surfExpan_salt_mean          =  -5.3277243151150E-08
(PID.TID 0000.0001) // =======================================================
(PID.TID 0000.0001) // End MONITOR dynamic field statistics
(PID.TID 0000.0001) // =======================================================
(PID.TID 0000.0001) %CHECKPOINT        20 ckptA
  early fc =  0.000000000000000D+00
 --> objf_test(bi,bj)   =  0.354115231360145D+06
 --> objf_test(bi,bj)   =  0.444589534075227D+06
  local fc =  0.798704765435371D+06
 global fc =  0.798704765435371D+06
 cg2d: Sum(rhs),rhsMax =  -8.56203996590921E-13  9.34829007243764E+00
 cg2d: Sum(rhs),rhsMax =  -7.78044295657310E-13  9.12167905632681E+00
(PID.TID 0000.0001) Did not write pickup because writePickupAtEnd = FALSE
 cg2d: Sum(rhs),rhsMax =  -8.56203996590921E-13  9.34829007243764E+00
 cg2d: Sum(rhs),rhsMax =  -7.78044295657310E-13  9.12167905632681E+00
(PID.TID 0000.0001) Did not write pickup because writePickupAtEnd = FALSE
(PID.TID 0000.0001) Did not write pickup because writePickupAtEnd = FALSE
 cg2d: Sum(rhs),rhsMax =   0.00000000000000E+00  0.00000000000000E+00
 cg2d: Sum(rhs),rhsMax =  -2.69229083471600E-15  6.76966537085450E-04
 cg2d: Sum(rhs),rhsMax =  -8.44657677134819E-13  8.31754379147366E+00
 cg2d: Sum(rhs),rhsMax =  -7.49622586226906E-13  8.97048397340147E+00
 cg2d: Sum(rhs),rhsMax =  -8.29558643999917E-13  9.43480072446720E+00
 cg2d: Sum(rhs),rhsMax =  -7.76267938817909E-13  9.69891950271935E+00
 cg2d: Sum(rhs),rhsMax =  -5.09814412907872E-13  9.76269586763470E+00
 cg2d: Sum(rhs),rhsMax =  -7.60280727263307E-13  9.63804624662821E+00
 cg2d: Sum(rhs),rhsMax =   8.07132138902489E-14  1.12800176292508E-03
 cg2d: Sum(rhs),rhsMax =   1.78940195993960E-13  1.19230209700089E-03
 cg2d: Sum(rhs),rhsMax =  -8.29558643999917E-13  9.43480072446720E+00
 cg2d: Sum(rhs),rhsMax =  -7.76267938817909E-13  9.69891950271935E+00
 cg2d: Sum(rhs),rhsMax =   4.13225009765483E-13  1.12069397365533E-03
 cg2d: Sum(rhs),rhsMax =   4.74509320724792E-13  1.06839092629844E-03
 cg2d: Sum(rhs),rhsMax =  -8.44657677134819E-13  8.31754379147366E+00
 cg2d: Sum(rhs),rhsMax =  -7.49622586226906E-13  8.97048397340147E+00
 cg2d: Sum(rhs),rhsMax =   4.74620343027254E-13  1.04899306102913E-03
 cg2d: Sum(rhs),rhsMax =   5.94635451989234E-13  1.01928705835677E-03
 cg2d: Sum(rhs),rhsMax =  -4.99600361081320E-14  7.14243599153802E+00
 cg2d: Sum(rhs),rhsMax =  -4.26325641456060E-14  7.72291365607133E+00
 cg2d: Sum(rhs),rhsMax =  -7.90478793533111E-14  8.03387068208590E+00
 cg2d: Sum(rhs),rhsMax =  -3.04645197957143E-13  8.11896831221745E+00
 cg2d: Sum(rhs),rhsMax =  -3.65929508916452E-13  8.04727754553643E+00
 cg2d: Sum(rhs),rhsMax =  -6.36823926924990E-13  7.88895797898159E+00
 cg2d: Sum(rhs),rhsMax =   6.39488462184090E-13  9.85320725523901E-04
 cg2d: Sum(rhs),rhsMax =   6.81010803305071E-13  1.00868528908259E-03
 cg2d: Sum(rhs),rhsMax =  -7.90478793533111E-14  8.03387068208590E+00
 cg2d: Sum(rhs),rhsMax =  -3.04645197957143E-13  8.11896831221745E+00
 cg2d: Sum(rhs),rhsMax =   7.81152920126260E-13  1.01831017062021E-03
 cg2d: Sum(rhs),rhsMax =   8.51319015282570E-13  1.01730137453669E-03
 cg2d: Sum(rhs),rhsMax =  -4.99600361081320E-14  7.14243599153802E+00
 cg2d: Sum(rhs),rhsMax =  -4.26325641456060E-14  7.72291365607133E+00
 cg2d: Sum(rhs),rhsMax =   9.50794998288984E-13  1.01053671002043E-03
 cg2d: Sum(rhs),rhsMax =   1.10622622173651E-12  1.00342273311352E-03
(PID.TID 0000.0001)  EXF_SET_GEN: it=         0 loading rec=    12 from: lev_sst.bin
(PID.TID 0000.0001)  EXF_SET_GEN: it=         0 loading rec=     1 from: lev_sst.bin
(PID.TID 0000.0001)  EXF_SET_GEN: it=         0 loading rec=    12 from: lev_sss.bin
(PID.TID 0000.0001)  EXF_SET_GEN: it=         0 loading rec=     1 from: lev_sss.bin
(PID.TID 0000.0001)  EXF_SET_GEN: it=         0 loading rec=    12 from: trenberth_taux.bin
(PID.TID 0000.0001)  EXF_SET_GEN: it=         0 loading rec=     1 from: trenberth_taux.bin
(PID.TID 0000.0001)  EXF_SET_GEN: it=         0 loading rec=    12 from: trenberth_tauy.bin
(PID.TID 0000.0001)  EXF_SET_GEN: it=         0 loading rec=     1 from: trenberth_tauy.bin
(PID.TID 0000.0001)  EXF_SET_GEN: it=         0 loading rec=    12 from: ncep_qnet.bin
(PID.TID 0000.0001)  EXF_SET_GEN: it=         0 loading rec=     1 from: ncep_qnet.bin
(PID.TID 0000.0001) SOLVE_FOR_PRESSURE: putPmEinXvector =    F
 cg2d: Sum(rhs),rhsMax =  -2.77555756156289E-16  2.53662338005399E+00
 cg2d: Sum(rhs),rhsMax =   3.80251385934116E-14  5.04305351695056E+00
 cg2d: Sum(rhs),rhsMax =   7.50562806350885E-14  6.28993178193994E+00
 cg2d: Sum(rhs),rhsMax =   1.00336405850499E-13  6.70007859133559E+00
 cg2d: Sum(rhs),rhsMax =   5.93969318174459E-14  6.82703161607703E+00
 cg2d: Sum(rhs),rhsMax =  -3.24185123190546E-14  6.85801094466119E+00
 cg2d: Sum(rhs),rhsMax =   1.26521015886283E-12  1.00012240906901E-03
 cg2d: Sum(rhs),rhsMax =   1.37312383685639E-12  1.00294944830281E-03
 cg2d: Sum(rhs),rhsMax =   7.50562806350885E-14  6.28993178193994E+00
 cg2d: Sum(rhs),rhsMax =   1.00336405850499E-13  6.70007859133559E+00
 cg2d: Sum(rhs),rhsMax =   1.52278190057586E-12  1.01232637639743E-03
 cg2d: Sum(rhs),rhsMax =   1.58317803311547E-12  1.02695457066718E-03
(PID.TID 0000.0001)  EXF_SET_GEN: it=         0 loading rec=    12 from: lev_sst.bin
(PID.TID 0000.0001)  EXF_SET_GEN: it=         0 loading rec=     1 from: lev_sst.bin
(PID.TID 0000.0001)  EXF_SET_GEN: it=         0 loading rec=    12 from: lev_sss.bin
(PID.TID 0000.0001)  EXF_SET_GEN: it=         0 loading rec=     1 from: lev_sss.bin
(PID.TID 0000.0001)  EXF_SET_GEN: it=         0 loading rec=    12 from: trenberth_taux.bin
(PID.TID 0000.0001)  EXF_SET_GEN: it=         0 loading rec=     1 from: trenberth_taux.bin
(PID.TID 0000.0001)  EXF_SET_GEN: it=         0 loading rec=    12 from: trenberth_tauy.bin
(PID.TID 0000.0001)  EXF_SET_GEN: it=         0 loading rec=     1 from: trenberth_tauy.bin
(PID.TID 0000.0001)  EXF_SET_GEN: it=         0 loading rec=    12 from: ncep_qnet.bin
(PID.TID 0000.0001)  EXF_SET_GEN: it=         0 loading rec=     1 from: ncep_qnet.bin
(PID.TID 0000.0001) SOLVE_FOR_PRESSURE: putPmEinXvector =    F
 cg2d: Sum(rhs),rhsMax =  -2.77555756156289E-16  2.53662338005399E+00
 cg2d: Sum(rhs),rhsMax =   3.80251385934116E-14  5.04305351695056E+00
 cg2d: Sum(rhs),rhsMax =   1.46993528460371E-12  1.04437188573638E-03
 cg2d: Sum(rhs),rhsMax =   1.39133149446025E-12  1.06189295162398E-03
(PID.TID 0000.0001) Start initial hydrostatic pressure computation
(PID.TID 0000.0001) Pressure is predetermined for buoyancyRelation OCEANIC
(PID.TID 0000.0001) 
 ph-pack: packing ecco_cost
 ph-pack: packing ecco_ctrl
(PID.TID 0000.0001) // =======================================================
(PID.TID 0000.0001) // Gradient-check starts (grdchk_main)
(PID.TID 0000.0001) // =======================================================
(PID.TID 0000.0001) grdchk reference fc: fcref       =  7.98704765435371E+05
grad-res -------------------------------
 grad-res  proc    #    i    j    k   bi   bj iobc       fc ref            fc + eps           fc - eps
 grad-res  proc    #    i    j    k   bi   bj iobc      adj grad            fd grad          1 - fd/adj
 grad-res exact position met: 
 grad-res     0  204    4    8    1    1    1
(PID.TID 0000.0001) ====== Starts gradient-check number   1 (=ichknum) =======
 ph-test icomp, ncvarcomp, ichknum          204        6945           1
 ph-grd _loc: bi, bj, icomptest, ichknum            1           1           0           1
 ph-grd -->hit<--            4           8           1           1
(PID.TID 0000.0001) grdchk pos: i,j,k=    4    8    1 ; bi,bj=   1   1 ; iobc=  1 ; rec=   1
(PID.TID 0000.0001) Start initial hydrostatic pressure computation
(PID.TID 0000.0001) Pressure is predetermined for buoyancyRelation OCEANIC
(PID.TID 0000.0001) 
(PID.TID 0000.0001) // =======================================================
(PID.TID 0000.0001) // Model current state
(PID.TID 0000.0001) // =======================================================
(PID.TID 0000.0001) 
(PID.TID 0000.0001)  EXF_SET_GEN: it=         0 loading rec=    12 from: lev_sst.bin
(PID.TID 0000.0001)  EXF_SET_GEN: it=         0 loading rec=     1 from: lev_sst.bin
(PID.TID 0000.0001)  EXF_SET_GEN: it=         0 loading rec=    12 from: lev_sss.bin
(PID.TID 0000.0001)  EXF_SET_GEN: it=         0 loading rec=     1 from: lev_sss.bin
(PID.TID 0000.0001)  EXF_SET_GEN: it=         0 loading rec=    12 from: trenberth_taux.bin
(PID.TID 0000.0001)  EXF_SET_GEN: it=         0 loading rec=     1 from: trenberth_taux.bin
(PID.TID 0000.0001)  EXF_SET_GEN: it=         0 loading rec=    12 from: trenberth_tauy.bin
(PID.TID 0000.0001)  EXF_SET_GEN: it=         0 loading rec=     1 from: trenberth_tauy.bin
(PID.TID 0000.0001)  EXF_SET_GEN: it=         0 loading rec=    12 from: ncep_qnet.bin
(PID.TID 0000.0001)  EXF_SET_GEN: it=         0 loading rec=     1 from: ncep_qnet.bin
(PID.TID 0000.0001) SOLVE_FOR_PRESSURE: putPmEinXvector =    F
 cg2d: Sum(rhs),rhsMax =  -2.77555756156289E-16  2.53662338005399E+00
 cg2d: Sum(rhs),rhsMax =   4.15778522722121E-14  5.04305351695056E+00
 cg2d: Sum(rhs),rhsMax =   7.53321016677688E-14  6.28993178194151E+00
 cg2d: Sum(rhs),rhsMax =   4.27713420236842E-14  6.70007859134346E+00
 cg2d: Sum(rhs),rhsMax =   6.41708908233340E-14  6.82703161609865E+00
 cg2d: Sum(rhs),rhsMax =   7.14983627858601E-14  6.85801094470190E+00
 cg2d: Sum(rhs),rhsMax =   8.34887714518118E-14  7.14243599155058E+00
 cg2d: Sum(rhs),rhsMax =  -1.56097357262297E-13  7.72291365609697E+00
 cg2d: Sum(rhs),rhsMax =  -9.59232693276135E-14  8.03387068212535E+00
 cg2d: Sum(rhs),rhsMax =  -3.07753822426093E-13  8.11896831227152E+00
 cg2d: Sum(rhs),rhsMax =  -5.01820807130571E-13  8.04727754560105E+00
 cg2d: Sum(rhs),rhsMax =  -7.05213665241899E-13  7.88895797900659E+00
 cg2d: Sum(rhs),rhsMax =  -8.19788681383216E-13  8.31754379149280E+00
 cg2d: Sum(rhs),rhsMax =  -9.11271058612328E-13  8.97048397342872E+00
 cg2d: Sum(rhs),rhsMax =  -8.66862137627322E-13  9.43480072450346E+00
 cg2d: Sum(rhs),rhsMax =  -8.15347789284715E-13  9.69891950276480E+00
 cg2d: Sum(rhs),rhsMax =  -8.63309423948522E-13  9.76269586768808E+00
 cg2d: Sum(rhs),rhsMax =  -8.45545855554519E-13  9.63804624668725E+00
 cg2d: Sum(rhs),rhsMax =  -8.27782287160517E-13  9.34829007249910E+00
 cg2d: Sum(rhs),rhsMax =  -8.91731133378926E-13  9.12167905635334E+00
(PID.TID 0000.0001) Did not write pickup because writePickupAtEnd = FALSE
  early fc =  0.000000000000000D+00
 --> objf_test(bi,bj)   =  0.354115231358161D+06
 --> objf_test(bi,bj)   =  0.444589534075216D+06
  local fc =  0.798704765433376D+06
 global fc =  0.798704765433376D+06
(PID.TID 0000.0001) grdchk perturb(+)fc: fcpertplus  =  7.98704765433376E+05
(PID.TID 0000.0001) Start initial hydrostatic pressure computation
(PID.TID 0000.0001) Pressure is predetermined for buoyancyRelation OCEANIC
(PID.TID 0000.0001) 
(PID.TID 0000.0001) // =======================================================
(PID.TID 0000.0001) // Model current state
(PID.TID 0000.0001) // =======================================================
(PID.TID 0000.0001) 
(PID.TID 0000.0001)  EXF_SET_GEN: it=         0 loading rec=    12 from: lev_sst.bin
(PID.TID 0000.0001)  EXF_SET_GEN: it=         0 loading rec=     1 from: lev_sst.bin
(PID.TID 0000.0001)  EXF_SET_GEN: it=         0 loading rec=    12 from: lev_sss.bin
(PID.TID 0000.0001)  EXF_SET_GEN: it=         0 loading rec=     1 from: lev_sss.bin
(PID.TID 0000.0001)  EXF_SET_GEN: it=         0 loading rec=    12 from: trenberth_taux.bin
(PID.TID 0000.0001)  EXF_SET_GEN: it=         0 loading rec=     1 from: trenberth_taux.bin
(PID.TID 0000.0001)  EXF_SET_GEN: it=         0 loading rec=    12 from: trenberth_tauy.bin
(PID.TID 0000.0001)  EXF_SET_GEN: it=         0 loading rec=     1 from: trenberth_tauy.bin
(PID.TID 0000.0001)  EXF_SET_GEN: it=         0 loading rec=    12 from: ncep_qnet.bin
(PID.TID 0000.0001)  EXF_SET_GEN: it=         0 loading rec=     1 from: ncep_qnet.bin
(PID.TID 0000.0001) SOLVE_FOR_PRESSURE: putPmEinXvector =    F
 cg2d: Sum(rhs),rhsMax =  -2.77555756156289E-16  2.53662338005399E+00
 cg2d: Sum(rhs),rhsMax =   3.80251385934116E-14  5.04305351695056E+00
 cg2d: Sum(rhs),rhsMax =   7.07489622442381E-14  6.28993178193838E+00
 cg2d: Sum(rhs),rhsMax =   1.31589183993697E-13  6.70007859132745E+00
 cg2d: Sum(rhs),rhsMax =   3.99680288865056E-14  6.82703161605603E+00
 cg2d: Sum(rhs),rhsMax =   7.06101843661600E-14  6.85801094462227E+00
 cg2d: Sum(rhs),rhsMax =  -1.06581410364015E-14  7.14243599152355E+00
 cg2d: Sum(rhs),rhsMax =  -3.53050921830800E-14  7.72291365604630E+00
 cg2d: Sum(rhs),rhsMax =  -1.00364161426114E-13  8.03387068204720E+00
 cg2d: Sum(rhs),rhsMax =  -3.38395977905748E-13  8.11896831216451E+00
 cg2d: Sum(rhs),rhsMax =  -3.97903932025656E-13  8.04727754547043E+00
 cg2d: Sum(rhs),rhsMax =  -7.55839835164807E-13  7.88895797895663E+00
 cg2d: Sum(rhs),rhsMax =  -9.37916411203332E-13  8.31754379145464E+00
 cg2d: Sum(rhs),rhsMax =  -7.60280727263307E-13  8.97048397337405E+00
 cg2d: Sum(rhs),rhsMax =  -7.76267938817909E-13  9.43480072443075E+00
 cg2d: Sum(rhs),rhsMax =  -7.76267938817909E-13  9.69891950267401E+00
 cg2d: Sum(rhs),rhsMax =  -8.88178419700125E-13  9.76269586758171E+00
 cg2d: Sum(rhs),rhsMax =  -8.02913291408913E-13  9.63804624656971E+00
 cg2d: Sum(rhs),rhsMax =  -7.81597009336110E-13  9.34829007237633E+00
 cg2d: Sum(rhs),rhsMax =  -8.84625706021325E-13  9.12167905630036E+00
(PID.TID 0000.0001) Did not write pickup because writePickupAtEnd = FALSE
  early fc =  0.000000000000000D+00
 --> objf_test(bi,bj)   =  0.354115231362129D+06
 --> objf_test(bi,bj)   =  0.444589534075239D+06
  local fc =  0.798704765437369D+06
 global fc =  0.798704765437369D+06
(PID.TID 0000.0001) grdchk perturb(-)fc: fcpertminus =  7.98704765437369E+05
grad-res -------------------------------
 grad-res     0    1    4    8    1    1    1    1   7.98704765435E+05  7.98704765433E+05  7.98704765437E+05
 grad-res     0    1    1  204    0    1    1    1  -1.99545934416E-02 -1.99611531571E-02 -3.28732103763E-04
(PID.TID 0000.0001)  ADM  ref_cost_function      =  7.98704765435371E+05
(PID.TID 0000.0001)  ADM  adjoint_gradient       = -1.99545934415736E-02
(PID.TID 0000.0001)  ADM  finite-diff_grad       = -1.99611531570554E-02
(PID.TID 0000.0001) ====== End of gradient-check number   1 (ierr=  0) =======
(PID.TID 0000.0001) ====== Starts gradient-check number   2 (=ichknum) =======
 ph-test icomp, ncvarcomp, ichknum          205        6945           2
 ph-grd _loc: bi, bj, icomptest, ichknum            1           1         204           2
 ph-grd -->hit<--            5           8           1           1
(PID.TID 0000.0001) grdchk pos: i,j,k=    5    8    1 ; bi,bj=   1   1 ; iobc=  1 ; rec=   1
(PID.TID 0000.0001) Start initial hydrostatic pressure computation
(PID.TID 0000.0001) Pressure is predetermined for buoyancyRelation OCEANIC
(PID.TID 0000.0001) 
(PID.TID 0000.0001) // =======================================================
(PID.TID 0000.0001) // Model current state
(PID.TID 0000.0001) // =======================================================
(PID.TID 0000.0001) 
(PID.TID 0000.0001)  EXF_SET_GEN: it=         0 loading rec=    12 from: lev_sst.bin
(PID.TID 0000.0001)  EXF_SET_GEN: it=         0 loading rec=     1 from: lev_sst.bin
(PID.TID 0000.0001)  EXF_SET_GEN: it=         0 loading rec=    12 from: lev_sss.bin
(PID.TID 0000.0001)  EXF_SET_GEN: it=         0 loading rec=     1 from: lev_sss.bin
(PID.TID 0000.0001)  EXF_SET_GEN: it=         0 loading rec=    12 from: trenberth_taux.bin
(PID.TID 0000.0001)  EXF_SET_GEN: it=         0 loading rec=     1 from: trenberth_taux.bin
(PID.TID 0000.0001)  EXF_SET_GEN: it=         0 loading rec=    12 from: trenberth_tauy.bin
(PID.TID 0000.0001)  EXF_SET_GEN: it=         0 loading rec=     1 from: trenberth_tauy.bin
(PID.TID 0000.0001)  EXF_SET_GEN: it=         0 loading rec=    12 from: ncep_qnet.bin
(PID.TID 0000.0001)  EXF_SET_GEN: it=         0 loading rec=     1 from: ncep_qnet.bin
(PID.TID 0000.0001) SOLVE_FOR_PRESSURE: putPmEinXvector =    F
 cg2d: Sum(rhs),rhsMax =  -2.77555756156289E-16  2.53662338005399E+00
 cg2d: Sum(rhs),rhsMax =   4.15778522722121E-14  5.04305351695056E+00
 cg2d: Sum(rhs),rhsMax =   3.57942842033054E-14  6.28993178194343E+00
 cg2d: Sum(rhs),rhsMax =   1.03556052621911E-13  6.70007859135132E+00
 cg2d: Sum(rhs),rhsMax =   6.43929354282591E-14  6.82703161611199E+00
 cg2d: Sum(rhs),rhsMax =   1.01474384450739E-13  6.85801094471951E+00
 cg2d: Sum(rhs),rhsMax =  -2.99760216648792E-14  7.14243599156130E+00
 cg2d: Sum(rhs),rhsMax =   2.26485497023532E-14  7.72291365611195E+00
 cg2d: Sum(rhs),rhsMax =  -1.95843341543878E-13  8.03387068214442E+00
 cg2d: Sum(rhs),rhsMax =  -3.59268170768701E-13  8.11896831229113E+00
 cg2d: Sum(rhs),rhsMax =  -4.87609952415369E-13  8.04727754561625E+00
 cg2d: Sum(rhs),rhsMax =  -8.03801469828613E-13  7.88895797901699E+00
 cg2d: Sum(rhs),rhsMax =  -6.74127420552395E-13  8.31754379150284E+00
 cg2d: Sum(rhs),rhsMax =  -8.27782287160517E-13  8.97048397344084E+00
 cg2d: Sum(rhs),rhsMax =  -9.02389274415327E-13  9.43480072451688E+00
 cg2d: Sum(rhs),rhsMax =  -7.92255150372512E-13  9.69891950277832E+00
 cg2d: Sum(rhs),rhsMax =  -5.63105118089879E-13  9.76269586770021E+00
 cg2d: Sum(rhs),rhsMax =  -6.00408611717285E-13  9.63804624669669E+00
 cg2d: Sum(rhs),rhsMax =  -9.52127265918534E-13  9.34829007250513E+00
 cg2d: Sum(rhs),rhsMax =  -8.49098569233320E-13  9.12167905636223E+00
(PID.TID 0000.0001) Did not write pickup because writePickupAtEnd = FALSE
  early fc =  0.000000000000000D+00
 --> objf_test(bi,bj)   =  0.354115231358193D+06
 --> objf_test(bi,bj)   =  0.444589534075217D+06
  local fc =  0.798704765433409D+06
 global fc =  0.798704765433409D+06
(PID.TID 0000.0001) grdchk perturb(+)fc: fcpertplus  =  7.98704765433409E+05
(PID.TID 0000.0001) Start initial hydrostatic pressure computation
(PID.TID 0000.0001) Pressure is predetermined for buoyancyRelation OCEANIC
(PID.TID 0000.0001) 
(PID.TID 0000.0001) // =======================================================
(PID.TID 0000.0001) // Model current state
(PID.TID 0000.0001) // =======================================================
(PID.TID 0000.0001) 
(PID.TID 0000.0001)  EXF_SET_GEN: it=         0 loading rec=    12 from: lev_sst.bin
(PID.TID 0000.0001)  EXF_SET_GEN: it=         0 loading rec=     1 from: lev_sst.bin
(PID.TID 0000.0001)  EXF_SET_GEN: it=         0 loading rec=    12 from: lev_sss.bin
(PID.TID 0000.0001)  EXF_SET_GEN: it=         0 loading rec=     1 from: lev_sss.bin
(PID.TID 0000.0001)  EXF_SET_GEN: it=         0 loading rec=    12 from: trenberth_taux.bin
(PID.TID 0000.0001)  EXF_SET_GEN: it=         0 loading rec=     1 from: trenberth_taux.bin
(PID.TID 0000.0001)  EXF_SET_GEN: it=         0 loading rec=    12 from: trenberth_tauy.bin
(PID.TID 0000.0001)  EXF_SET_GEN: it=         0 loading rec=     1 from: trenberth_tauy.bin
(PID.TID 0000.0001)  EXF_SET_GEN: it=         0 loading rec=    12 from: ncep_qnet.bin
(PID.TID 0000.0001)  EXF_SET_GEN: it=         0 loading rec=     1 from: ncep_qnet.bin
(PID.TID 0000.0001) SOLVE_FOR_PRESSURE: putPmEinXvector =    F
 cg2d: Sum(rhs),rhsMax =  -2.77555756156289E-16  2.53662338005399E+00
 cg2d: Sum(rhs),rhsMax =   3.80251385934116E-14  5.04305351695056E+00
 cg2d: Sum(rhs),rhsMax =   6.10084899266283E-14  6.28993178193646E+00
 cg2d: Sum(rhs),rhsMax =   7.47457651328887E-14  6.70007859132015E+00
 cg2d: Sum(rhs),rhsMax =   6.96109836439973E-14  6.82703161604287E+00
 cg2d: Sum(rhs),rhsMax =   9.82547376793264E-14  6.85801094460573E+00
 cg2d: Sum(rhs),rhsMax =  -6.26165785888588E-14  7.14243599151192E+00
 cg2d: Sum(rhs),rhsMax =   3.33066907387547E-15  7.72291365602942E+00
 cg2d: Sum(rhs),rhsMax =  -1.18127729820117E-13  8.03387068202681E+00
 cg2d: Sum(rhs),rhsMax =  -2.93542967710891E-13  8.11896831214697E+00
 cg2d: Sum(rhs),rhsMax =  -3.32178728967847E-13  8.04727754545894E+00
 cg2d: Sum(rhs),rhsMax =  -5.14255305006373E-13  7.88895797894649E+00
 cg2d: Sum(rhs),rhsMax =  -8.28670465580217E-13  8.31754379144449E+00
 cg2d: Sum(rhs),rhsMax =  -7.63833440942108E-13  8.97048397336176E+00
 cg2d: Sum(rhs),rhsMax =  -8.11795075605914E-13  9.43480072441719E+00
 cg2d: Sum(rhs),rhsMax =  -8.45545855554519E-13  9.69891950266048E+00
 cg2d: Sum(rhs),rhsMax =  -6.66133814775094E-13  9.76269586756972E+00
 cg2d: Sum(rhs),rhsMax =  -8.79296635503124E-13  9.63804624656059E+00
 cg2d: Sum(rhs),rhsMax =  -7.95807864051312E-13  9.34829007237082E+00
 cg2d: Sum(rhs),rhsMax =  -8.63309423948522E-13  9.12167905629137E+00
(PID.TID 0000.0001) Did not write pickup because writePickupAtEnd = FALSE
  early fc =  0.000000000000000D+00
 --> objf_test(bi,bj)   =  0.354115231362097D+06
 --> objf_test(bi,bj)   =  0.444589534075237D+06
  local fc =  0.798704765437333D+06
 global fc =  0.798704765437333D+06
(PID.TID 0000.0001) grdchk perturb(-)fc: fcpertminus =  7.98704765437333E+05
grad-res -------------------------------
 grad-res     0    2    5    8    1    1    1    1   7.98704765435E+05  7.98704765433E+05  7.98704765437E+05
 grad-res     0    2    2  205    0    1    1    1  -1.96210731004E-02 -1.96200562641E-02  5.18236861556E-05
(PID.TID 0000.0001)  ADM  ref_cost_function      =  7.98704765435371E+05
(PID.TID 0000.0001)  ADM  adjoint_gradient       = -1.96210731004369E-02
(PID.TID 0000.0001)  ADM  finite-diff_grad       = -1.96200562641025E-02
(PID.TID 0000.0001) ====== End of gradient-check number   2 (ierr=  0) =======
(PID.TID 0000.0001) ====== Starts gradient-check number   3 (=ichknum) =======
 ph-test icomp, ncvarcomp, ichknum          206        6945           3
 ph-grd _loc: bi, bj, icomptest, ichknum            1           1         205           3
 ph-grd -->hit<--            6           8           1           1
(PID.TID 0000.0001) grdchk pos: i,j,k=    6    8    1 ; bi,bj=   1   1 ; iobc=  1 ; rec=   1
(PID.TID 0000.0001) Start initial hydrostatic pressure computation
(PID.TID 0000.0001) Pressure is predetermined for buoyancyRelation OCEANIC
(PID.TID 0000.0001) 
(PID.TID 0000.0001) // =======================================================
(PID.TID 0000.0001) // Model current state
(PID.TID 0000.0001) // =======================================================
(PID.TID 0000.0001) 
(PID.TID 0000.0001)  EXF_SET_GEN: it=         0 loading rec=    12 from: lev_sst.bin
(PID.TID 0000.0001)  EXF_SET_GEN: it=         0 loading rec=     1 from: lev_sst.bin
(PID.TID 0000.0001)  EXF_SET_GEN: it=         0 loading rec=    12 from: lev_sss.bin
(PID.TID 0000.0001)  EXF_SET_GEN: it=         0 loading rec=     1 from: lev_sss.bin
(PID.TID 0000.0001)  EXF_SET_GEN: it=         0 loading rec=    12 from: trenberth_taux.bin
(PID.TID 0000.0001)  EXF_SET_GEN: it=         0 loading rec=     1 from: trenberth_taux.bin
(PID.TID 0000.0001)  EXF_SET_GEN: it=         0 loading rec=    12 from: trenberth_tauy.bin
(PID.TID 0000.0001)  EXF_SET_GEN: it=         0 loading rec=     1 from: trenberth_tauy.bin
(PID.TID 0000.0001)  EXF_SET_GEN: it=         0 loading rec=    12 from: ncep_qnet.bin
(PID.TID 0000.0001)  EXF_SET_GEN: it=         0 loading rec=     1 from: ncep_qnet.bin
(PID.TID 0000.0001) SOLVE_FOR_PRESSURE: putPmEinXvector =    F
 cg2d: Sum(rhs),rhsMax =  -2.77555756156289E-16  2.53662338005399E+00
 cg2d: Sum(rhs),rhsMax =   4.15778522722121E-14  5.04305351695056E+00
 cg2d: Sum(rhs),rhsMax =   8.73016936520088E-14  6.28993178194434E+00
 cg2d: Sum(rhs),rhsMax =   1.09412479076809E-13  6.70007859135251E+00
 cg2d: Sum(rhs),rhsMax =   9.65894031423886E-14  6.82703161611302E+00
 cg2d: Sum(rhs),rhsMax =   1.31339383813156E-13  6.85801094471969E+00
 cg2d: Sum(rhs),rhsMax =  -3.88578058618805E-14  7.14243599156986E+00
 cg2d: Sum(rhs),rhsMax =   2.04281036531029E-14  7.72291365612118E+00
 cg2d: Sum(rhs),rhsMax =   6.66133814775094E-15  8.03387068215144E+00
 cg2d: Sum(rhs),rhsMax =  -3.09086090055644E-13  8.11896831229601E+00
 cg2d: Sum(rhs),rhsMax =  -4.71622740860766E-13  8.04727754561628E+00
 cg2d: Sum(rhs),rhsMax =  -7.73603403558809E-13  7.88895797902048E+00
 cg2d: Sum(rhs),rhsMax =  -7.71827046719409E-13  8.31754379150922E+00
 cg2d: Sum(rhs),rhsMax =  -9.25481913327530E-13  8.97048397344763E+00
 cg2d: Sum(rhs),rhsMax =  -7.99360577730113E-13  9.43480072452314E+00
 cg2d: Sum(rhs),rhsMax =  -7.90478793533111E-13  9.69891950278317E+00
 cg2d: Sum(rhs),rhsMax =  -6.53699316899292E-13  9.76269586770301E+00
 cg2d: Sum(rhs),rhsMax =  -7.38964445190504E-13  9.63804624669697E+00
 cg2d: Sum(rhs),rhsMax =  -6.21724893790088E-13  9.34829007250260E+00
 cg2d: Sum(rhs),rhsMax =  -7.42517158869305E-13  9.12167905636660E+00
(PID.TID 0000.0001) Did not write pickup because writePickupAtEnd = FALSE
  early fc =  0.000000000000000D+00
 --> objf_test(bi,bj)   =  0.354115231358188D+06
 --> objf_test(bi,bj)   =  0.444589534075218D+06
  local fc =  0.798704765433406D+06
 global fc =  0.798704765433406D+06
(PID.TID 0000.0001) grdchk perturb(+)fc: fcpertplus  =  7.98704765433406E+05
(PID.TID 0000.0001) Start initial hydrostatic pressure computation
(PID.TID 0000.0001) Pressure is predetermined for buoyancyRelation OCEANIC
(PID.TID 0000.0001) 
(PID.TID 0000.0001) // =======================================================
(PID.TID 0000.0001) // Model current state
(PID.TID 0000.0001) // =======================================================
(PID.TID 0000.0001) 
(PID.TID 0000.0001)  EXF_SET_GEN: it=         0 loading rec=    12 from: lev_sst.bin
(PID.TID 0000.0001)  EXF_SET_GEN: it=         0 loading rec=     1 from: lev_sst.bin
(PID.TID 0000.0001)  EXF_SET_GEN: it=         0 loading rec=    12 from: lev_sss.bin
(PID.TID 0000.0001)  EXF_SET_GEN: it=         0 loading rec=     1 from: lev_sss.bin
(PID.TID 0000.0001)  EXF_SET_GEN: it=         0 loading rec=    12 from: trenberth_taux.bin
(PID.TID 0000.0001)  EXF_SET_GEN: it=         0 loading rec=     1 from: trenberth_taux.bin
(PID.TID 0000.0001)  EXF_SET_GEN: it=         0 loading rec=    12 from: trenberth_tauy.bin
(PID.TID 0000.0001)  EXF_SET_GEN: it=         0 loading rec=     1 from: trenberth_tauy.bin
(PID.TID 0000.0001)  EXF_SET_GEN: it=         0 loading rec=    12 from: ncep_qnet.bin
(PID.TID 0000.0001)  EXF_SET_GEN: it=         0 loading rec=     1 from: ncep_qnet.bin
(PID.TID 0000.0001) SOLVE_FOR_PRESSURE: putPmEinXvector =    F
 cg2d: Sum(rhs),rhsMax =  -2.77555756156289E-16  2.53662338005399E+00
 cg2d: Sum(rhs),rhsMax =   4.51305659510126E-14  5.04305351695056E+00
 cg2d: Sum(rhs),rhsMax =   8.44515429809789E-14  6.28993178193555E+00
 cg2d: Sum(rhs),rhsMax =   9.50350909079134E-14  6.70007859131807E+00
 cg2d: Sum(rhs),rhsMax =   4.11892742135933E-14  6.82703161604091E+00
 cg2d: Sum(rhs),rhsMax =   2.47579734491410E-14  6.85801094460644E+00
 cg2d: Sum(rhs),rhsMax =   3.10862446895044E-14  7.14243599150492E+00
 cg2d: Sum(rhs),rhsMax =  -4.24105195406810E-14  7.72291365601962E+00
 cg2d: Sum(rhs),rhsMax =  -9.14823772291129E-14  8.03387068201762E+00
 cg2d: Sum(rhs),rhsMax =  -3.78364006792253E-13  8.11896831214093E+00
 cg2d: Sum(rhs),rhsMax =  -4.92050844513869E-13  8.04727754545728E+00
 cg2d: Sum(rhs),rhsMax =  -7.41628980449605E-13  7.88895797893960E+00
 cg2d: Sum(rhs),rhsMax =  -7.42517158869305E-13  8.31754379143805E+00
 cg2d: Sum(rhs),rhsMax =  -8.20676859802916E-13  8.97048397335496E+00
 cg2d: Sum(rhs),rhsMax =  -7.85149723014911E-13  9.43480072441083E+00
 cg2d: Sum(rhs),rhsMax =  -7.62057084102707E-13  9.69891950265567E+00
 cg2d: Sum(rhs),rhsMax =  -6.27053964308288E-13  9.76269586756700E+00
 cg2d: Sum(rhs),rhsMax =  -7.76267938817909E-13  9.63804624656036E+00
 cg2d: Sum(rhs),rhsMax =  -8.38440428196918E-13  9.34829007237321E+00
 cg2d: Sum(rhs),rhsMax =  -8.81072992342524E-13  9.12167905628693E+00
(PID.TID 0000.0001) Did not write pickup because writePickupAtEnd = FALSE
  early fc =  0.000000000000000D+00
 --> objf_test(bi,bj)   =  0.354115231362102D+06
 --> objf_test(bi,bj)   =  0.444589534075236D+06
  local fc =  0.798704765437337D+06
 global fc =  0.798704765437337D+06
(PID.TID 0000.0001) grdchk perturb(-)fc: fcpertminus =  7.98704765437337E+05
grad-res -------------------------------
 grad-res     0    3    6    8    1    1    1    1   7.98704765435E+05  7.98704765433E+05  7.98704765437E+05
 grad-res     0    3    3  206    0    1    1    1  -1.96590888574E-02 -1.96584733203E-02  3.13105597414E-05
(PID.TID 0000.0001)  ADM  ref_cost_function      =  7.98704765435371E+05
(PID.TID 0000.0001)  ADM  adjoint_gradient       = -1.96590888573815E-02
(PID.TID 0000.0001)  ADM  finite-diff_grad       = -1.96584733203053E-02
(PID.TID 0000.0001) ====== End of gradient-check number   3 (ierr=  0) =======
(PID.TID 0000.0001) ====== Starts gradient-check number   4 (=ichknum) =======
 ph-test icomp, ncvarcomp, ichknum          207        6945           4
 ph-grd _loc: bi, bj, icomptest, ichknum            1           1         206           4
 ph-grd -->hit<--            7           8           1           1
(PID.TID 0000.0001) grdchk pos: i,j,k=    7    8    1 ; bi,bj=   1   1 ; iobc=  1 ; rec=   1
(PID.TID 0000.0001) Start initial hydrostatic pressure computation
(PID.TID 0000.0001) Pressure is predetermined for buoyancyRelation OCEANIC
(PID.TID 0000.0001) 
(PID.TID 0000.0001) // =======================================================
(PID.TID 0000.0001) // Model current state
(PID.TID 0000.0001) // =======================================================
(PID.TID 0000.0001) 
(PID.TID 0000.0001)  EXF_SET_GEN: it=         0 loading rec=    12 from: lev_sst.bin
(PID.TID 0000.0001)  EXF_SET_GEN: it=         0 loading rec=     1 from: lev_sst.bin
(PID.TID 0000.0001)  EXF_SET_GEN: it=         0 loading rec=    12 from: lev_sss.bin
(PID.TID 0000.0001)  EXF_SET_GEN: it=         0 loading rec=     1 from: lev_sss.bin
(PID.TID 0000.0001)  EXF_SET_GEN: it=         0 loading rec=    12 from: trenberth_taux.bin
(PID.TID 0000.0001)  EXF_SET_GEN: it=         0 loading rec=     1 from: trenberth_taux.bin
(PID.TID 0000.0001)  EXF_SET_GEN: it=         0 loading rec=    12 from: trenberth_tauy.bin
(PID.TID 0000.0001)  EXF_SET_GEN: it=         0 loading rec=     1 from: trenberth_tauy.bin
(PID.TID 0000.0001)  EXF_SET_GEN: it=         0 loading rec=    12 from: ncep_qnet.bin
(PID.TID 0000.0001)  EXF_SET_GEN: it=         0 loading rec=     1 from: ncep_qnet.bin
(PID.TID 0000.0001) SOLVE_FOR_PRESSURE: putPmEinXvector =    F
 cg2d: Sum(rhs),rhsMax =  -2.77555756156289E-16  2.53662338005399E+00
 cg2d: Sum(rhs),rhsMax =   4.15778522722121E-14  5.04305351695056E+00
 cg2d: Sum(rhs),rhsMax =   4.50004616903144E-14  6.28993178194315E+00
 cg2d: Sum(rhs),rhsMax =   1.31367139388772E-13  6.70007859135030E+00
 cg2d: Sum(rhs),rhsMax =   5.96189764223709E-14  6.82703161610809E+00
 cg2d: Sum(rhs),rhsMax =   1.65423230669148E-14  6.85801094471197E+00
 cg2d: Sum(rhs),rhsMax =  -3.41948691584548E-14  7.14243599157407E+00
 cg2d: Sum(rhs),rhsMax =  -3.88578058618805E-14  7.72291365612505E+00
 cg2d: Sum(rhs),rhsMax =  -1.19904086659517E-14  8.03387068215321E+00
 cg2d: Sum(rhs),rhsMax =  -2.95319324550292E-13  8.11896831229459E+00
 cg2d: Sum(rhs),rhsMax =  -3.99680288865056E-13  8.04727754561298E+00
 cg2d: Sum(rhs),rhsMax =  -7.30082660993503E-13  7.88895797902488E+00
 cg2d: Sum(rhs),rhsMax =  -7.96696042471012E-13  8.31754379151353E+00
 cg2d: Sum(rhs),rhsMax =  -8.34887714518118E-13  8.97048397345162E+00
 cg2d: Sum(rhs),rhsMax =  -8.89954776539525E-13  9.43480072452627E+00
 cg2d: Sum(rhs),rhsMax =  -7.88702436693711E-13  9.69891950278502E+00
 cg2d: Sum(rhs),rhsMax =  -6.69686528453894E-13  9.76269586770318E+00
 cg2d: Sum(rhs),rhsMax =  -7.22977233635902E-13  9.63804624669534E+00
 cg2d: Sum(rhs),rhsMax =  -6.50146603220492E-13  9.34829007249936E+00
 cg2d: Sum(rhs),rhsMax =  -6.85673740008497E-13  9.12167905636955E+00
(PID.TID 0000.0001) Did not write pickup because writePickupAtEnd = FALSE
  early fc =  0.000000000000000D+00
 --> objf_test(bi,bj)   =  0.354115231357987D+06
 --> objf_test(bi,bj)   =  0.444589534075221D+06
  local fc =  0.798704765433208D+06
 global fc =  0.798704765433208D+06
(PID.TID 0000.0001) grdchk perturb(+)fc: fcpertplus  =  7.98704765433208E+05
(PID.TID 0000.0001) Start initial hydrostatic pressure computation
(PID.TID 0000.0001) Pressure is predetermined for buoyancyRelation OCEANIC
(PID.TID 0000.0001) 
(PID.TID 0000.0001) // =======================================================
(PID.TID 0000.0001) // Model current state
(PID.TID 0000.0001) // =======================================================
(PID.TID 0000.0001) 
(PID.TID 0000.0001)  EXF_SET_GEN: it=         0 loading rec=    12 from: lev_sst.bin
(PID.TID 0000.0001)  EXF_SET_GEN: it=         0 loading rec=     1 from: lev_sst.bin
(PID.TID 0000.0001)  EXF_SET_GEN: it=         0 loading rec=    12 from: lev_sss.bin
(PID.TID 0000.0001)  EXF_SET_GEN: it=         0 loading rec=     1 from: lev_sss.bin
(PID.TID 0000.0001)  EXF_SET_GEN: it=         0 loading rec=    12 from: trenberth_taux.bin
(PID.TID 0000.0001)  EXF_SET_GEN: it=         0 loading rec=     1 from: trenberth_taux.bin
(PID.TID 0000.0001)  EXF_SET_GEN: it=         0 loading rec=    12 from: trenberth_tauy.bin
(PID.TID 0000.0001)  EXF_SET_GEN: it=         0 loading rec=     1 from: trenberth_tauy.bin
(PID.TID 0000.0001)  EXF_SET_GEN: it=         0 loading rec=    12 from: ncep_qnet.bin
(PID.TID 0000.0001)  EXF_SET_GEN: it=         0 loading rec=     1 from: ncep_qnet.bin
(PID.TID 0000.0001) SOLVE_FOR_PRESSURE: putPmEinXvector =    F
 cg2d: Sum(rhs),rhsMax =  -2.77555756156289E-16  2.53662338005399E+00
 cg2d: Sum(rhs),rhsMax =   4.15778522722121E-14  5.04305351695056E+00
 cg2d: Sum(rhs),rhsMax =   6.52446846549637E-14  6.28993178193674E+00
 cg2d: Sum(rhs),rhsMax =   7.80209230555329E-14  6.70007859132161E+00
 cg2d: Sum(rhs),rhsMax =   9.50350909079134E-14  6.82703161604641E+00
 cg2d: Sum(rhs),rhsMax =   5.58442181386454E-14  6.85801094461299E+00
 cg2d: Sum(rhs),rhsMax =   1.55431223447522E-14  7.14243599149923E+00
 cg2d: Sum(rhs),rhsMax =  -9.21485110438880E-14  7.72291365601715E+00
 cg2d: Sum(rhs),rhsMax =  -8.97060203897126E-14  8.03387068201753E+00
 cg2d: Sum(rhs),rhsMax =  -3.61044527608101E-13  8.11896831214255E+00
 cg2d: Sum(rhs),rhsMax =  -5.32018873400375E-13  8.04727754546010E+00
 cg2d: Sum(rhs),rhsMax =  -7.89590615113411E-13  7.88895797893534E+00
 cg2d: Sum(rhs),rhsMax =  -7.37188088351104E-13  8.31754379143366E+00
 cg2d: Sum(rhs),rhsMax =  -9.14823772291129E-13  8.97048397335082E+00
 cg2d: Sum(rhs),rhsMax =  -7.58504370423907E-13  9.43480072440762E+00
 cg2d: Sum(rhs),rhsMax =  -7.17648163117701E-13  9.69891950265375E+00
 cg2d: Sum(rhs),rhsMax =  -7.30082660993503E-13  9.76269586756682E+00
 cg2d: Sum(rhs),rhsMax =  -8.27782287160517E-13  9.63804624656201E+00
 cg2d: Sum(rhs),rhsMax =  -8.95283847057726E-13  9.34829007237653E+00
 cg2d: Sum(rhs),rhsMax =  -7.81597009336110E-13  9.12167905628406E+00
(PID.TID 0000.0001) Did not write pickup because writePickupAtEnd = FALSE
  early fc =  0.000000000000000D+00
 --> objf_test(bi,bj)   =  0.354115231362302D+06
 --> objf_test(bi,bj)   =  0.444589534075235D+06
  local fc =  0.798704765437537D+06
 global fc =  0.798704765437537D+06
(PID.TID 0000.0001) grdchk perturb(-)fc: fcpertminus =  7.98704765437537E+05
grad-res -------------------------------
 grad-res     0    4    7    8    1    1    1    1   7.98704765435E+05  7.98704765433E+05  7.98704765438E+05
 grad-res     0    4    4  207    0    1    1    1  -2.16533768328E-02 -2.16445187107E-02  4.09087329685E-04
(PID.TID 0000.0001)  ADM  ref_cost_function      =  7.98704765435371E+05
(PID.TID 0000.0001)  ADM  adjoint_gradient       = -2.16533768327800E-02
(PID.TID 0000.0001)  ADM  finite-diff_grad       = -2.16445187106729E-02
(PID.TID 0000.0001) ====== End of gradient-check number   4 (ierr=  0) =======
(PID.TID 0000.0001) ====== Starts gradient-check number   5 (=ichknum) =======
 ph-test icomp, ncvarcomp, ichknum          208        6945           5
 ph-grd _loc: bi, bj, icomptest, ichknum            1           1         207           5
 ph-grd -->hit<--            8           8           1           1
(PID.TID 0000.0001) grdchk pos: i,j,k=    8    8    1 ; bi,bj=   1   1 ; iobc=  1 ; rec=   1
(PID.TID 0000.0001) Start initial hydrostatic pressure computation
(PID.TID 0000.0001) Pressure is predetermined for buoyancyRelation OCEANIC
(PID.TID 0000.0001) 
(PID.TID 0000.0001) // =======================================================
(PID.TID 0000.0001) // Model current state
(PID.TID 0000.0001) // =======================================================
(PID.TID 0000.0001) 
(PID.TID 0000.0001)  EXF_SET_GEN: it=         0 loading rec=    12 from: lev_sst.bin
(PID.TID 0000.0001)  EXF_SET_GEN: it=         0 loading rec=     1 from: lev_sst.bin
(PID.TID 0000.0001)  EXF_SET_GEN: it=         0 loading rec=    12 from: lev_sss.bin
(PID.TID 0000.0001)  EXF_SET_GEN: it=         0 loading rec=     1 from: lev_sss.bin
(PID.TID 0000.0001)  EXF_SET_GEN: it=         0 loading rec=    12 from: trenberth_taux.bin
(PID.TID 0000.0001)  EXF_SET_GEN: it=         0 loading rec=     1 from: trenberth_taux.bin
(PID.TID 0000.0001)  EXF_SET_GEN: it=         0 loading rec=    12 from: trenberth_tauy.bin
(PID.TID 0000.0001)  EXF_SET_GEN: it=         0 loading rec=     1 from: trenberth_tauy.bin
(PID.TID 0000.0001)  EXF_SET_GEN: it=         0 loading rec=    12 from: ncep_qnet.bin
(PID.TID 0000.0001)  EXF_SET_GEN: it=         0 loading rec=     1 from: ncep_qnet.bin
(PID.TID 0000.0001) SOLVE_FOR_PRESSURE: putPmEinXvector =    F
 cg2d: Sum(rhs),rhsMax =  -2.77555756156289E-16  2.53662338005399E+00
 cg2d: Sum(rhs),rhsMax =   3.80251385934116E-14  5.04305351695056E+00
 cg2d: Sum(rhs),rhsMax =   7.74033614980851E-14  6.28993178194144E+00
 cg2d: Sum(rhs),rhsMax =   1.02529096324133E-13  6.70007859134291E+00
 cg2d: Sum(rhs),rhsMax =   7.28306304154103E-14  6.82703161609566E+00
 cg2d: Sum(rhs),rhsMax =   2.02060590481778E-14  6.85801094469373E+00
 cg2d: Sum(rhs),rhsMax =  -2.42028619368284E-14  7.14243599156807E+00
 cg2d: Sum(rhs),rhsMax =  -1.07913677993565E-13  7.72291365611494E+00
 cg2d: Sum(rhs),rhsMax =  -4.57411886145564E-14  8.03387068214167E+00
 cg2d: Sum(rhs),rhsMax =  -3.00648395068492E-13  8.11896831228110E+00
 cg2d: Sum(rhs),rhsMax =  -4.68070027181966E-13  8.04727754560106E+00
 cg2d: Sum(rhs),rhsMax =  -8.65085780787922E-13  7.88895797902036E+00
 cg2d: Sum(rhs),rhsMax =  -7.03437308402499E-13  8.31754379151048E+00
 cg2d: Sum(rhs),rhsMax =  -9.76996261670138E-13  8.97048397344724E+00
 cg2d: Sum(rhs),rhsMax =  -7.60280727263307E-13  9.43480072452051E+00
 cg2d: Sum(rhs),rhsMax =  -7.08766378920700E-13  9.69891950277805E+00
 cg2d: Sum(rhs),rhsMax =  -7.65609797781508E-13  9.76269586769535E+00
 cg2d: Sum(rhs),rhsMax =  -6.34159391665889E-13  9.63804624668709E+00
 cg2d: Sum(rhs),rhsMax =  -8.59756710269721E-13  9.34829007249099E+00
 cg2d: Sum(rhs),rhsMax =  -8.52651282912120E-13  9.12167905636606E+00
(PID.TID 0000.0001) Did not write pickup because writePickupAtEnd = FALSE
  early fc =  0.000000000000000D+00
 --> objf_test(bi,bj)   =  0.354115231358061D+06
 --> objf_test(bi,bj)   =  0.444589534075221D+06
  local fc =  0.798704765433282D+06
 global fc =  0.798704765433282D+06
(PID.TID 0000.0001) grdchk perturb(+)fc: fcpertplus  =  7.98704765433282E+05
(PID.TID 0000.0001) Start initial hydrostatic pressure computation
(PID.TID 0000.0001) Pressure is predetermined for buoyancyRelation OCEANIC
(PID.TID 0000.0001) 
(PID.TID 0000.0001) // =======================================================
(PID.TID 0000.0001) // Model current state
(PID.TID 0000.0001) // =======================================================
(PID.TID 0000.0001) 
(PID.TID 0000.0001)  EXF_SET_GEN: it=         0 loading rec=    12 from: lev_sst.bin
(PID.TID 0000.0001)  EXF_SET_GEN: it=         0 loading rec=     1 from: lev_sst.bin
(PID.TID 0000.0001)  EXF_SET_GEN: it=         0 loading rec=    12 from: lev_sss.bin
(PID.TID 0000.0001)  EXF_SET_GEN: it=         0 loading rec=     1 from: lev_sss.bin
(PID.TID 0000.0001)  EXF_SET_GEN: it=         0 loading rec=    12 from: trenberth_taux.bin
(PID.TID 0000.0001)  EXF_SET_GEN: it=         0 loading rec=     1 from: trenberth_taux.bin
(PID.TID 0000.0001)  EXF_SET_GEN: it=         0 loading rec=    12 from: trenberth_tauy.bin
(PID.TID 0000.0001)  EXF_SET_GEN: it=         0 loading rec=     1 from: trenberth_tauy.bin
(PID.TID 0000.0001)  EXF_SET_GEN: it=         0 loading rec=    12 from: ncep_qnet.bin
(PID.TID 0000.0001)  EXF_SET_GEN: it=         0 loading rec=     1 from: ncep_qnet.bin
(PID.TID 0000.0001) SOLVE_FOR_PRESSURE: putPmEinXvector =    F
 cg2d: Sum(rhs),rhsMax =  -2.77555756156289E-16  2.53662338005399E+00
 cg2d: Sum(rhs),rhsMax =   3.80251385934116E-14  5.04305351695056E+00
 cg2d: Sum(rhs),rhsMax =   6.42142589102335E-14  6.28993178193845E+00
 cg2d: Sum(rhs),rhsMax =   8.10185252220208E-14  6.70007859132800E+00
 cg2d: Sum(rhs),rhsMax =   8.01581023779363E-14  6.82703161605798E+00
 cg2d: Sum(rhs),rhsMax =   9.58122470251510E-14  6.85801094462948E+00
 cg2d: Sum(rhs),rhsMax =  -5.66213742558830E-14  7.14243599150587E+00
 cg2d: Sum(rhs),rhsMax =  -3.44169137633799E-14  7.72291365602575E+00
 cg2d: Sum(rhs),rhsMax =  -1.59872115546023E-13  8.03387068202880E+00
 cg2d: Sum(rhs),rhsMax =  -3.77919917582403E-13  8.11896831215564E+00
 cg2d: Sum(rhs),rhsMax =  -4.13891143580258E-13  8.04727754547380E+00
 cg2d: Sum(rhs),rhsMax =  -6.10178574333986E-13  7.88895797893939E+00
 cg2d: Sum(rhs),rhsMax =  -8.75743921824323E-13  8.31754379143682E+00
 cg2d: Sum(rhs),rhsMax =  -7.76267938817909E-13  8.97048397335530E+00
 cg2d: Sum(rhs),rhsMax =  -7.31859017832903E-13  9.43480072441335E+00
 cg2d: Sum(rhs),rhsMax =  -8.63309423948522E-13  9.69891950266066E+00
 cg2d: Sum(rhs),rhsMax =  -7.53175299905706E-13  9.76269586757459E+00
 cg2d: Sum(rhs),rhsMax =  -5.59552404411079E-13  9.63804624657024E+00
 cg2d: Sum(rhs),rhsMax =  -8.63309423948522E-13  9.34829007238485E+00
 cg2d: Sum(rhs),rhsMax =  -7.88702436693711E-13  9.12167905628749E+00
(PID.TID 0000.0001) Did not write pickup because writePickupAtEnd = FALSE
  early fc =  0.000000000000000D+00
 --> objf_test(bi,bj)   =  0.354115231362228D+06
 --> objf_test(bi,bj)   =  0.444589534075233D+06
  local fc =  0.798704765437461D+06
 global fc =  0.798704765437461D+06
(PID.TID 0000.0001) grdchk perturb(-)fc: fcpertminus =  7.98704765437461E+05
grad-res -------------------------------
 grad-res     0    5    8    8    1    1    1    1   7.98704765435E+05  7.98704765433E+05  7.98704765437E+05
 grad-res     0    5    5  208    0    1    1    1  -2.08952615873E-02 -2.08965502679E-02 -6.16733426710E-05
(PID.TID 0000.0001)  ADM  ref_cost_function      =  7.98704765435371E+05
(PID.TID 0000.0001)  ADM  adjoint_gradient       = -2.08952615873067E-02
(PID.TID 0000.0001)  ADM  finite-diff_grad       = -2.08965502679348E-02
(PID.TID 0000.0001) ====== End of gradient-check number   5 (ierr=  0) =======
(PID.TID 0000.0001) 
(PID.TID 0000.0001) // =======================================================
(PID.TID 0000.0001) // Gradient check results  >>> START <<<
(PID.TID 0000.0001) // =======================================================
(PID.TID 0000.0001) 
(PID.TID 0000.0001)  EPS =   1.000000E-04
(PID.TID 0000.0001) 
(PID.TID 0000.0001) grdchk output h.p:  Id Itile Jtile LAYER   bi   bj   X(Id)           X(Id)+/-EPS
(PID.TID 0000.0001) grdchk output h.c:  Id  FC                   FC1                  FC2
(PID.TID 0000.0001) grdchk output h.g:  Id     FC1-FC2/(2*EPS)      ADJ GRAD(FC)         1-FDGRD/ADGRD
(PID.TID 0000.0001) 
(PID.TID 0000.0001) grdchk output (p):   1     4     8     1    1    1   0.000000000E+00 -1.000000000E-04
(PID.TID 0000.0001) grdchk output (c):   1  7.9870476543537E+05  7.9870476543338E+05  7.9870476543737E+05
(PID.TID 0000.0001) grdchk output (g):   1    -1.9961153157055E-02 -1.9954593441574E-02 -3.2873210376350E-04
(PID.TID 0000.0001) 
(PID.TID 0000.0001) grdchk output (p):   2     5     8     1    1    1   0.000000000E+00 -1.000000000E-04
(PID.TID 0000.0001) grdchk output (c):   2  7.9870476543537E+05  7.9870476543341E+05  7.9870476543733E+05
(PID.TID 0000.0001) grdchk output (g):   2    -1.9620056264102E-02 -1.9621073100437E-02  5.1823686155639E-05
(PID.TID 0000.0001) 
(PID.TID 0000.0001) grdchk output (p):   3     6     8     1    1    1   0.000000000E+00 -1.000000000E-04
(PID.TID 0000.0001) grdchk output (c):   3  7.9870476543537E+05  7.9870476543341E+05  7.9870476543734E+05
(PID.TID 0000.0001) grdchk output (g):   3    -1.9658473320305E-02 -1.9659088857381E-02  3.1310559741371E-05
(PID.TID 0000.0001) 
(PID.TID 0000.0001) grdchk output (p):   4     7     8     1    1    1   0.000000000E+00 -1.000000000E-04
(PID.TID 0000.0001) grdchk output (c):   4  7.9870476543537E+05  7.9870476543321E+05  7.9870476543754E+05
(PID.TID 0000.0001) grdchk output (g):   4    -2.1644518710673E-02 -2.1653376832780E-02  4.0908732968536E-04
(PID.TID 0000.0001) 
(PID.TID 0000.0001) grdchk output (p):   5     8     8     1    1    1   0.000000000E+00 -1.000000000E-04
(PID.TID 0000.0001) grdchk output (c):   5  7.9870476543537E+05  7.9870476543328E+05  7.9870476543746E+05
(PID.TID 0000.0001) grdchk output (g):   5    -2.0896550267935E-02 -2.0895261587307E-02 -6.1673342671043E-05
(PID.TID 0000.0001) 
(PID.TID 0000.0001) grdchk  summary  :  RMS of    5 ratios =  2.3785999501731E-04
(PID.TID 0000.0001) 
(PID.TID 0000.0001) // =======================================================
(PID.TID 0000.0001) // Gradient check results  >>> END <<<
(PID.TID 0000.0001) // =======================================================
(PID.TID 0000.0001) 
(PID.TID 0000.0001)   Seconds in section "ALL                    [THE_MODEL_MAIN]":
(PID.TID 0000.0001)           User time:   230.39697963767685
(PID.TID 0000.0001)         System time:  0.48392698529642075
(PID.TID 0000.0001)     Wall clock time:   231.58339595794678
(PID.TID 0000.0001)          No. starts:           1
(PID.TID 0000.0001)           No. stops:           1
(PID.TID 0000.0001)   Seconds in section "INITIALISE_FIXED       [THE_MODEL_MAIN]":
(PID.TID 0000.0001)           User time:  0.13897899561561644
(PID.TID 0000.0001)         System time:  1.59980001626536250E-002
(PID.TID 0000.0001)     Wall clock time:  0.21055603027343750
(PID.TID 0000.0001)          No. starts:           1
(PID.TID 0000.0001)           No. stops:           1
(PID.TID 0000.0001)   Seconds in section "ADTHE_MAIN_LOOP          [ADJOINT RUN]":
(PID.TID 0000.0001)           User time:   83.186352998018265
(PID.TID 0000.0001)         System time:  0.37994200922548771
(PID.TID 0000.0001)     Wall clock time:   83.859733104705811
(PID.TID 0000.0001)          No. starts:           1
(PID.TID 0000.0001)           No. stops:           1
(PID.TID 0000.0001)   Seconds in section "FORWARD_STEP        [MAIN_DO_LOOP]":
(PID.TID 0000.0001)           User time:   165.38583296537399
(PID.TID 0000.0001)         System time:  9.69860590994358063E-002
(PID.TID 0000.0001)     Wall clock time:   165.92188835144043
(PID.TID 0000.0001)          No. starts:         234
(PID.TID 0000.0001)           No. stops:         234
(PID.TID 0000.0001)   Seconds in section "LOAD_FIELDS_DRIVER  [FORWARD_STEP]":
(PID.TID 0000.0001)           User time:   1.1097114384174347
(PID.TID 0000.0001)         System time:  1.49979852139949799E-002
(PID.TID 0000.0001)     Wall clock time:   1.1626951694488525
(PID.TID 0000.0001)          No. starts:         234
(PID.TID 0000.0001)           No. stops:         234
(PID.TID 0000.0001)   Seconds in section "EXF_GETFORCING     [LOAD_FLDS_DRIVER]":
(PID.TID 0000.0001)           User time:   1.1017158329486847
(PID.TID 0000.0001)         System time:  1.39979980885982513E-002
(PID.TID 0000.0001)     Wall clock time:   1.1541781425476074
(PID.TID 0000.0001)          No. starts:         234
(PID.TID 0000.0001)           No. stops:         234
(PID.TID 0000.0001)   Seconds in section "I/O (WRITE)        [ADJOINT LOOP]":
(PID.TID 0000.0001)           User time:  7.99942016601562500E-003
(PID.TID 0000.0001)         System time:   0.0000000000000000
(PID.TID 0000.0001)     Wall clock time:  7.90572166442871094E-003
(PID.TID 0000.0001)          No. starts:         862
(PID.TID 0000.0001)           No. stops:         862
(PID.TID 0000.0001)   Seconds in section "EXTERNAL_FLDS_LOAD [LOAD_FLDS_DRIVER]":
(PID.TID 0000.0001)           User time:  1.00708007812500000E-003
(PID.TID 0000.0001)         System time:   0.0000000000000000
(PID.TID 0000.0001)     Wall clock time:  2.19154357910156250E-003
(PID.TID 0000.0001)          No. starts:         234
(PID.TID 0000.0001)           No. stops:         234
(PID.TID 0000.0001)   Seconds in section "DO_ATMOSPHERIC_PHYS [FORWARD_STEP]":
(PID.TID 0000.0001)           User time:  0.20287358760833740
(PID.TID 0000.0001)         System time:   0.0000000000000000
(PID.TID 0000.0001)     Wall clock time:  0.19924902915954590
(PID.TID 0000.0001)          No. starts:         234
(PID.TID 0000.0001)           No. stops:         234
(PID.TID 0000.0001)   Seconds in section "DO_OCEANIC_PHYS     [FORWARD_STEP]":
(PID.TID 0000.0001)           User time:   25.533201068639755
(PID.TID 0000.0001)         System time:  8.99798423051834106E-003
(PID.TID 0000.0001)     Wall clock time:   25.611576080322266
(PID.TID 0000.0001)          No. starts:         234
(PID.TID 0000.0001)           No. stops:         234
(PID.TID 0000.0001)   Seconds in section "THERMODYNAMICS      [FORWARD_STEP]":
(PID.TID 0000.0001)           User time:   50.727334260940552
(PID.TID 0000.0001)         System time:  2.89960578083992004E-002
(PID.TID 0000.0001)     Wall clock time:   50.870495319366455
(PID.TID 0000.0001)          No. starts:         234
(PID.TID 0000.0001)           No. stops:         234
(PID.TID 0000.0001)   Seconds in section "DYNAMICS            [FORWARD_STEP]":
(PID.TID 0000.0001)           User time:   66.285884082317352
(PID.TID 0000.0001)         System time:  1.89969912171363831E-002
(PID.TID 0000.0001)     Wall clock time:   66.490280866622925
(PID.TID 0000.0001)          No. starts:         234
(PID.TID 0000.0001)           No. stops:         234
(PID.TID 0000.0001)   Seconds in section "SOLVE_FOR_PRESSURE  [FORWARD_STEP]":
(PID.TID 0000.0001)           User time:   11.203293561935425
(PID.TID 0000.0001)         System time:  1.09979733824729919E-002
(PID.TID 0000.0001)     Wall clock time:   11.237483739852905
(PID.TID 0000.0001)          No. starts:         234
(PID.TID 0000.0001)           No. stops:         234
(PID.TID 0000.0001)   Seconds in section "MOM_CORRECTION_STEP [FORWARD_STEP]":
(PID.TID 0000.0001)           User time:   1.3618136644363403
(PID.TID 0000.0001)         System time:  1.00001692771911621E-003
(PID.TID 0000.0001)     Wall clock time:   1.3616418838500977
(PID.TID 0000.0001)          No. starts:         234
(PID.TID 0000.0001)           No. stops:         234
(PID.TID 0000.0001)   Seconds in section "INTEGR_CONTINUITY   [FORWARD_STEP]":
(PID.TID 0000.0001)           User time:   2.4135764837265015
(PID.TID 0000.0001)         System time:  1.00001692771911621E-003
(PID.TID 0000.0001)     Wall clock time:   2.4189317226409912
(PID.TID 0000.0001)          No. starts:         234
(PID.TID 0000.0001)           No. stops:         234
(PID.TID 0000.0001)   Seconds in section "TRC_CORRECTION_STEP [FORWARD_STEP]":
(PID.TID 0000.0001)           User time:  1.99890136718750000E-003
(PID.TID 0000.0001)         System time:   0.0000000000000000
(PID.TID 0000.0001)     Wall clock time:  2.30407714843750000E-003
(PID.TID 0000.0001)          No. starts:         234
(PID.TID 0000.0001)           No. stops:         234
(PID.TID 0000.0001)   Seconds in section "BLOCKING_EXCHANGES  [FORWARD_STEP]":
(PID.TID 0000.0001)           User time:  0.98883628845214844
(PID.TID 0000.0001)         System time:   0.0000000000000000
(PID.TID 0000.0001)     Wall clock time:  0.99307465553283691
(PID.TID 0000.0001)          No. starts:         234
(PID.TID 0000.0001)           No. stops:         234
(PID.TID 0000.0001)   Seconds in section "MONITOR             [FORWARD_STEP]":
(PID.TID 0000.0001)           User time:   1.7437351942062378
(PID.TID 0000.0001)         System time:  2.00000405311584473E-003
(PID.TID 0000.0001)     Wall clock time:   1.7505931854248047
(PID.TID 0000.0001)          No. starts:          20
(PID.TID 0000.0001)           No. stops:          20
(PID.TID 0000.0001)   Seconds in section "COST_TILE           [FORWARD_STEP]":
(PID.TID 0000.0001)           User time:   3.7155829668045044
(PID.TID 0000.0001)         System time:   0.0000000000000000
(PID.TID 0000.0001)     Wall clock time:   3.7097675800323486
(PID.TID 0000.0001)          No. starts:         234
(PID.TID 0000.0001)           No. stops:         234
(PID.TID 0000.0001)   Seconds in section "DO_THE_MODEL_IO     [FORWARD_STEP]":
(PID.TID 0000.0001)           User time:  2.19898223876953125E-002
(PID.TID 0000.0001)         System time:  3.99899482727050781E-003
(PID.TID 0000.0001)     Wall clock time:  2.69167423248291016E-002
(PID.TID 0000.0001)          No. starts:         234
(PID.TID 0000.0001)           No. stops:         234
(PID.TID 0000.0001)   Seconds in section "DO_WRITE_PICKUP     [FORWARD_STEP]":
(PID.TID 0000.0001)           User time:  5.19981384277343750E-002
(PID.TID 0000.0001)         System time:  4.00000065565109253E-003
(PID.TID 0000.0001)     Wall clock time:  5.47542572021484375E-002
(PID.TID 0000.0001)          No. starts:         234
(PID.TID 0000.0001)           No. stops:         234
(PID.TID 0000.0001)   Seconds in section "CTRL_PACK           [THE_MODEL_MAIN]":
(PID.TID 0000.0001)           User time:  6.19888305664062500E-002
(PID.TID 0000.0001)         System time:  6.99898600578308105E-003
(PID.TID 0000.0001)     Wall clock time:  6.87141418457031250E-002
(PID.TID 0000.0001)          No. starts:           1
(PID.TID 0000.0001)           No. stops:           1
(PID.TID 0000.0001)   Seconds in section "CTRL_PACK     [THE_MODEL_MAIN]":
(PID.TID 0000.0001)           User time:  6.59942626953125000E-002
(PID.TID 0000.0001)         System time:  2.00000405311584473E-003
(PID.TID 0000.0001)     Wall clock time:  6.96840286254882813E-002
(PID.TID 0000.0001)          No. starts:           1
(PID.TID 0000.0001)           No. stops:           1
(PID.TID 0000.0001)   Seconds in section "GRDCHK_MAIN         [THE_MODEL_MAIN]":
(PID.TID 0000.0001)           User time:   146.94366455078125
(PID.TID 0000.0001)         System time:  7.89879858493804932E-002
(PID.TID 0000.0001)     Wall clock time:   147.37463402748108
(PID.TID 0000.0001)          No. starts:           1
(PID.TID 0000.0001)           No. stops:           1
(PID.TID 0000.0001)   Seconds in section "INITIALISE_VARIA    [THE_MAIN_LOOP]":
(PID.TID 0000.0001)           User time:  0.73190307617187500
(PID.TID 0000.0001)         System time:  6.99996948242187500E-003
(PID.TID 0000.0001)     Wall clock time:  0.74204063415527344
(PID.TID 0000.0001)          No. starts:          10
(PID.TID 0000.0001)           No. stops:          10
(PID.TID 0000.0001)   Seconds in section "MAIN LOOP           [THE_MAIN_LOOP]":
(PID.TID 0000.0001)           User time:   146.17876434326172
(PID.TID 0000.0001)         System time:  6.49900436401367188E-002
(PID.TID 0000.0001)     Wall clock time:   146.59405207633972
(PID.TID 0000.0001)          No. starts:          10
(PID.TID 0000.0001)           No. stops:          10
(PID.TID 0000.0001)   Seconds in section "MAIN_DO_LOOP        [THE_MAIN_LOOP]":
(PID.TID 0000.0001)           User time:   139.47177124023438
(PID.TID 0000.0001)         System time:  6.49900436401367188E-002
(PID.TID 0000.0001)     Wall clock time:   139.85805845260620
(PID.TID 0000.0001)          No. starts:         200
(PID.TID 0000.0001)           No. stops:         200
(PID.TID 0000.0001)   Seconds in section "COST_FINAL         [ADJOINT SPIN-DOWN]":
(PID.TID 0000.0001)           User time:  1.00708007812500000E-003
(PID.TID 0000.0001)         System time:   0.0000000000000000
(PID.TID 0000.0001)     Wall clock time:  1.38020515441894531E-003
(PID.TID 0000.0001)          No. starts:          10
(PID.TID 0000.0001)           No. stops:          10
(PID.TID 0000.0001) // ======================================================
(PID.TID 0000.0001) // Tile <-> Tile communication statistics
(PID.TID 0000.0001) // ======================================================
(PID.TID 0000.0001) // o Tile number: 000001
(PID.TID 0000.0001) //         No. X exchanges =              0
(PID.TID 0000.0001) //            Max. X spins =              0
(PID.TID 0000.0001) //            Min. X spins =     1000000000
(PID.TID 0000.0001) //          Total. X spins =              0
(PID.TID 0000.0001) //            Avg. X spins =       0.00E+00
(PID.TID 0000.0001) //         No. Y exchanges =              0
(PID.TID 0000.0001) //            Max. Y spins =              0
(PID.TID 0000.0001) //            Min. Y spins =     1000000000
(PID.TID 0000.0001) //          Total. Y spins =              0
(PID.TID 0000.0001) //            Avg. Y spins =       0.00E+00
(PID.TID 0000.0001) // o Tile number: 000002
(PID.TID 0000.0001) //         No. X exchanges =              0
(PID.TID 0000.0001) //            Max. X spins =              0
(PID.TID 0000.0001) //            Min. X spins =     1000000000
(PID.TID 0000.0001) //          Total. X spins =              0
(PID.TID 0000.0001) //            Avg. X spins =       0.00E+00
(PID.TID 0000.0001) //         No. Y exchanges =              0
(PID.TID 0000.0001) //            Max. Y spins =              0
(PID.TID 0000.0001) //            Min. Y spins =     1000000000
(PID.TID 0000.0001) //          Total. Y spins =              0
(PID.TID 0000.0001) //            Avg. Y spins =       0.00E+00
(PID.TID 0000.0001) // o Thread number: 000001
(PID.TID 0000.0001) //            No. barriers =          50526
(PID.TID 0000.0001) //      Max. barrier spins =              1
(PID.TID 0000.0001) //      Min. barrier spins =              1
(PID.TID 0000.0001) //     Total barrier spins =          50526
(PID.TID 0000.0001) //      Avg. barrier spins =       1.00E+00
PROGRAM MAIN: Execution ended Normally
