(PID.TID 0000.0001) 
(PID.TID 0000.0001) // ======================================================
(PID.TID 0000.0001) //                      MITgcm UV
(PID.TID 0000.0001) //                      =========
(PID.TID 0000.0001) // ======================================================
(PID.TID 0000.0001) // execution environment starting up...
(PID.TID 0000.0001) 
(PID.TID 0000.0001) // MITgcmUV version:  checkpoint65z
(PID.TID 0000.0001) // Build user:        jmc
(PID.TID 0000.0001) // Build host:        baudelaire
(PID.TID 0000.0001) // Build date:        Thu Oct  6 12:06:18 EDT 2016
(PID.TID 0000.0001) 
(PID.TID 0000.0001) // =======================================================
(PID.TID 0000.0001) // Execution Environment parameter file "eedata"
(PID.TID 0000.0001) // =======================================================
(PID.TID 0000.0001) ># Example "eedata" file
(PID.TID 0000.0001) ># Lines beginning "#" are comments
(PID.TID 0000.0001) ># nTx - No. threads per process in X
(PID.TID 0000.0001) ># nTy - No. threads per process in Y
(PID.TID 0000.0001) > &EEPARMS
(PID.TID 0000.0001) > nTx=1,
(PID.TID 0000.0001) > nTy=1,
(PID.TID 0000.0001) > /
(PID.TID 0000.0001) ># Note: Some systems use & as the
(PID.TID 0000.0001) ># namelist terminator. Other systems
(PID.TID 0000.0001) ># use a / character (as shown here).
(PID.TID 0000.0001) 
(PID.TID 0000.0001) // =======================================================
(PID.TID 0000.0001) // Computational Grid Specification ( see files "SIZE.h" )
(PID.TID 0000.0001) //                                  ( and "eedata"       )
(PID.TID 0000.0001) // =======================================================
(PID.TID 0000.0001)      nPx =    1 ; /* No. processes in X */
(PID.TID 0000.0001)      nPy =    1 ; /* No. processes in Y */
(PID.TID 0000.0001)      nSx =    2 ; /* No. tiles in X per process */
(PID.TID 0000.0001)      nSy =    1 ; /* No. tiles in Y per process */
(PID.TID 0000.0001)      sNx =   45 ; /* Tile size in X */
(PID.TID 0000.0001)      sNy =   40 ; /* Tile size in Y */
(PID.TID 0000.0001)      OLx =    2 ; /* Tile overlap distance in X */
(PID.TID 0000.0001)      OLy =    2 ; /* Tile overlap distance in Y */
(PID.TID 0000.0001)      nTx =    1 ; /* No. threads in X per process */
(PID.TID 0000.0001)      nTy =    1 ; /* No. threads in Y per process */
(PID.TID 0000.0001)       Nr =   15 ; /* No. levels in the vertical   */
(PID.TID 0000.0001)       Nx =   90 ; /* Total domain size in X ( = nPx*nSx*sNx ) */
(PID.TID 0000.0001)       Ny =   40 ; /* Total domain size in Y ( = nPy*nSy*sNy ) */
(PID.TID 0000.0001)   nTiles =    2 ; /* Total no. tiles per process ( = nSx*nSy ) */
(PID.TID 0000.0001)   nProcs =    1 ; /* Total no. processes ( = nPx*nPy ) */
(PID.TID 0000.0001) nThreads =    1 ; /* Total no. threads per process ( = nTx*nTy ) */
(PID.TID 0000.0001) usingMPI =    F ; /* Flag used to control whether MPI is in use */
(PID.TID 0000.0001)                   /*  note: To execute a program with MPI calls */
(PID.TID 0000.0001)                   /*  it must be launched appropriately e.g     */
(PID.TID 0000.0001)                   /*  "mpirun -np 64 ......"                    */
(PID.TID 0000.0001) useCoupler=    F ;/* Flag used to control communications with   */
(PID.TID 0000.0001)                   /*  other model components, through a coupler */
(PID.TID 0000.0001) debugMode =    F ; /* print debug msg. (sequence of S/R calls)  */
(PID.TID 0000.0001) printMapIncludesZeros=    F ; /* print zeros in Std.Output maps */
(PID.TID 0000.0001) maxLengthPrt1D=   65 /* maxLength of 1D array printed to StdOut */
(PID.TID 0000.0001) 
(PID.TID 0000.0001) // ======================================================
(PID.TID 0000.0001) // Mapping of tiles to threads
(PID.TID 0000.0001) // ======================================================
(PID.TID 0000.0001) // -o- Thread   1, tiles (   1:   2,   1:   1)
(PID.TID 0000.0001) 
(PID.TID 0000.0001) // ======================================================
(PID.TID 0000.0001) // Tile <-> Tile connectvity table
(PID.TID 0000.0001) // ======================================================
(PID.TID 0000.0001) // Tile number: 000001 (process no. = 000000)
(PID.TID 0000.0001) //        WEST: Tile = 000002, Process = 000000, Comm = put
(PID.TID 0000.0001) //                bi = 000002, bj = 000001
(PID.TID 0000.0001) //        EAST: Tile = 000002, Process = 000000, Comm = put
(PID.TID 0000.0001) //                bi = 000002, bj = 000001
(PID.TID 0000.0001) //       SOUTH: Tile = 000001, Process = 000000, Comm = put
(PID.TID 0000.0001) //                bi = 000001, bj = 000001
(PID.TID 0000.0001) //       NORTH: Tile = 000001, Process = 000000, Comm = put
(PID.TID 0000.0001) //                bi = 000001, bj = 000001
(PID.TID 0000.0001) // Tile number: 000002 (process no. = 000000)
(PID.TID 0000.0001) //        WEST: Tile = 000001, Process = 000000, Comm = put
(PID.TID 0000.0001) //                bi = 000001, bj = 000001
(PID.TID 0000.0001) //        EAST: Tile = 000001, Process = 000000, Comm = put
(PID.TID 0000.0001) //                bi = 000001, bj = 000001
(PID.TID 0000.0001) //       SOUTH: Tile = 000002, Process = 000000, Comm = put
(PID.TID 0000.0001) //                bi = 000002, bj = 000001
(PID.TID 0000.0001) //       NORTH: Tile = 000002, Process = 000000, Comm = put
(PID.TID 0000.0001) //                bi = 000002, bj = 000001
(PID.TID 0000.0001) 
(PID.TID 0000.0001)  INI_PARMS: opening model parameter file "data"
(PID.TID 0000.0001)  OPEN_COPY_DATA_FILE: opening file data
(PID.TID 0000.0001) // =======================================================
(PID.TID 0000.0001) // Parameter file "data"
(PID.TID 0000.0001) // =======================================================
(PID.TID 0000.0001) ># ====================
(PID.TID 0000.0001) ># | Model parameters |
(PID.TID 0000.0001) ># ====================
(PID.TID 0000.0001) >#
(PID.TID 0000.0001) ># Continuous equation parameters
(PID.TID 0000.0001) > &PARM01
(PID.TID 0000.0001) > tRef = 15*20.,
(PID.TID 0000.0001) > sRef = 15*35.,
(PID.TID 0000.0001) > viscAr=1.E-3,
(PID.TID 0000.0001) > viscAh=5.E5,
(PID.TID 0000.0001) > diffKhT=0.0,
(PID.TID 0000.0001) > diffKrT=3.E-5,
(PID.TID 0000.0001) > diffKhS=0.0,
(PID.TID 0000.0001) > diffKrS=3.E-5,
(PID.TID 0000.0001) > rhonil=1035.,
(PID.TID 0000.0001) > rotationPeriod=86400.,
(PID.TID 0000.0001) > gravity=9.81,
(PID.TID 0000.0001) > eosType = 'POLY3',
(PID.TID 0000.0001) > ivdc_kappa=100.,
(PID.TID 0000.0001) > implicitDiffusion=.TRUE.,
(PID.TID 0000.0001) > allowFreezing=.TRUE.,
(PID.TID 0000.0001) > useRealFreshWaterFlux=.TRUE.,
(PID.TID 0000.0001) > useCDscheme=.TRUE.,
(PID.TID 0000.0001) > useNHMTerms=.TRUE.,
(PID.TID 0000.0001) ># turn on looped cells
(PID.TID 0000.0001) > hFacMin=.05,
(PID.TID 0000.0001) > hFacMindr=50.,
(PID.TID 0000.0001) ># set precision of data files
(PID.TID 0000.0001) > readBinaryPrec=32,
(PID.TID 0000.0001) >#- not safe to use globalFiles in multi-processors runs
(PID.TID 0000.0001) >#globalfiles=.TRUE.
(PID.TID 0000.0001) > usesinglecpuio=.TRUE.
(PID.TID 0000.0001) > /
(PID.TID 0000.0001) >
(PID.TID 0000.0001) ># Elliptic solver parameters
(PID.TID 0000.0001) > &PARM02
(PID.TID 0000.0001) > cg2dMaxIters=500,
(PID.TID 0000.0001) > cg2dTargetResidual=1.E-13,
(PID.TID 0000.0001) > useSRCGSolver = .TRUE.,
(PID.TID 0000.0001) > /
(PID.TID 0000.0001) >
(PID.TID 0000.0001) ># Time stepping parameters
(PID.TID 0000.0001) > &PARM03
(PID.TID 0000.0001) > nIter0 =      0,
(PID.TID 0000.0001) > nTimeSteps = 20,
(PID.TID 0000.0001) ># 100 years of integration will yield a reasonable flow field
(PID.TID 0000.0001) ># startTime  =          0.,
(PID.TID 0000.0001) ># endTime    = 3110400000.,
(PID.TID 0000.0001) > deltaTmom = 1200.0,
(PID.TID 0000.0001) > tauCD =     321428.,
(PID.TID 0000.0001) > deltaTtracer= 43200.0,
(PID.TID 0000.0001) > deltaTClock = 43200.0,
(PID.TID 0000.0001) ># if you are using a version later than checkpoint45d on the main branch
(PID.TID 0000.0001) ># you can uncomment the following line and increase the time step
(PID.TID 0000.0001) ># deltaTtracer and deltaTClock to 172800.0 as well to speed up the
(PID.TID 0000.0001) ># asynchronous time stepping
(PID.TID 0000.0001) ># deltaTfreesurf = 172800.0,
(PID.TID 0000.0001) > abEps = 0.1,
(PID.TID 0000.0001) > pChkptFreq= 311040000.,
(PID.TID 0000.0001) > dumpFreq=   311040000.,
(PID.TID 0000.0001) > dumpFreq=   864000.,
(PID.TID 0000.0001) > taveFreq=   311040000.,
(PID.TID 0000.0001) > taveFreq=   864000.,
(PID.TID 0000.0001) > monitorFreq=1.,
(PID.TID 0000.0001) > /
(PID.TID 0000.0001) >
(PID.TID 0000.0001) ># Gridding parameters
(PID.TID 0000.0001) > &PARM04
(PID.TID 0000.0001) > usingSphericalPolarGrid=.TRUE.,
(PID.TID 0000.0001) > delR= 50., 70., 100., 140., 190.,
(PID.TID 0000.0001) >       240., 290., 340., 390., 440.,
(PID.TID 0000.0001) >       490., 540., 590., 640., 690.,
(PID.TID 0000.0001) > ygOrigin=-80.,
(PID.TID 0000.0001) > dySpacing=4.,
(PID.TID 0000.0001) > dxSpacing=4.,
(PID.TID 0000.0001) > /
(PID.TID 0000.0001) >
(PID.TID 0000.0001) ># Input datasets
(PID.TID 0000.0001) > &PARM05
(PID.TID 0000.0001) > bathyFile=      'bathymetry.bin',
(PID.TID 0000.0001) > hydrogThetaFile='lev_t.bin',
(PID.TID 0000.0001) > hydrogSaltFile= 'lev_s.bin',
(PID.TID 0000.0001) > /
(PID.TID 0000.0001) 
(PID.TID 0000.0001)  INI_PARMS ; starts to read PARM01
(PID.TID 0000.0001)  INI_PARMS ; read PARM01 : OK
(PID.TID 0000.0001) S/R INI_PARMS: No request for barotropic solver
(PID.TID 0000.0001) S/R INI_PARMS: => Use implicitFreeSurface as default
(PID.TID 0000.0001)  INI_PARMS ; starts to read PARM02
(PID.TID 0000.0001)  INI_PARMS ; read PARM02 : OK
(PID.TID 0000.0001)  INI_PARMS ; starts to read PARM03
(PID.TID 0000.0001)  INI_PARMS ; read PARM03 : OK
(PID.TID 0000.0001)  INI_PARMS ; starts to read PARM04
(PID.TID 0000.0001)  INI_PARMS ; read PARM04 : OK
(PID.TID 0000.0001)  INI_PARMS ; starts to read PARM05
(PID.TID 0000.0001)  INI_PARMS ; read PARM05 : OK
(PID.TID 0000.0001)  INI_PARMS: finished reading file "data"
(PID.TID 0000.0001)  PACKAGES_BOOT: opening data.pkg
(PID.TID 0000.0001)  OPEN_COPY_DATA_FILE: opening file data.pkg
(PID.TID 0000.0001) // =======================================================
(PID.TID 0000.0001) // Parameter file "data.pkg"
(PID.TID 0000.0001) // =======================================================
(PID.TID 0000.0001) ># Packages
(PID.TID 0000.0001) > &PACKAGES
(PID.TID 0000.0001) >  useEXF         = .TRUE.,
(PID.TID 0000.0001) >  useGMRedi      = .TRUE.,
(PID.TID 0000.0001) >  useFRAZIL      = .TRUE.,
(PID.TID 0000.0001) >  useBBL         = .TRUE.,
(PID.TID 0000.0001) >  useDiagnostics = .TRUE.,
(PID.TID 0000.0001) > /
(PID.TID 0000.0001) >
(PID.TID 0000.0001) 
(PID.TID 0000.0001)  PACKAGES_BOOT: finished reading data.pkg
(PID.TID 0000.0001)  PACKAGES_BOOT: On/Off package Summary
 --------  pkgs with a standard "usePKG" On/Off switch in "data.pkg":  --------
 pkg/kpp                  compiled but not used ( useKPP                   = F )
 pkg/gmredi               compiled   and   used ( useGMRedi                = T )
 pkg/bbl                  compiled   and   used ( useBBL                   = T )
 pkg/cal                  compiled   and   used ( useCAL                   = T )
 pkg/exf                  compiled   and   used ( useEXF                   = T )
 pkg/profiles             compiled but not used ( usePROFILES              = F )
 pkg/sbo                  compiled but not used ( useSBO                   = F )
 pkg/frazil               compiled   and   used ( useFRAZIL                = T )
 pkg/diagnostics          compiled   and   used ( useDiagnostics           = T )
 -------- pkgs without standard "usePKG" On/Off switch in "data.pkg":  --------
 pkg/generic_advdiff      compiled   and   used ( useGAD                   = T )
 pkg/mom_common           compiled   and   used ( momStepping              = T )
 pkg/mom_vecinv           compiled but not used ( +vectorInvariantMomentum = F )
 pkg/mom_fluxform         compiled   and   used ( & not vectorInvariantMom = T )
 pkg/cd_code              compiled   and   used ( useCDscheme              = T )
 pkg/monitor              compiled   and   used ( monitorFreq > 0.         = T )
 pkg/timeave              compiled   and   used ( taveFreq > 0.            = T )
 pkg/debug                compiled but not used ( debugMode                = F )
 pkg/rw                   compiled   and   used
 pkg/mdsio                compiled   and   used
(PID.TID 0000.0001)  PACKAGES_BOOT: End of package Summary
(PID.TID 0000.0001) 
(PID.TID 0000.0001) CAL_READPARMS: opening data.cal
(PID.TID 0000.0001)  OPEN_COPY_DATA_FILE: opening file data.cal
(PID.TID 0000.0001) // =======================================================
(PID.TID 0000.0001) // Parameter file "data.cal"
(PID.TID 0000.0001) // =======================================================
(PID.TID 0000.0001) >#
(PID.TID 0000.0001) ># *******************
(PID.TID 0000.0001) ># Calendar Parameters
(PID.TID 0000.0001) ># *******************
(PID.TID 0000.0001) > &CAL_NML
(PID.TID 0000.0001) > TheCalendar='model',
(PID.TID 0000.0001) > startDate_1=19920101,
(PID.TID 0000.0001) > startDate_2=000000,
(PID.TID 0000.0001) > /
(PID.TID 0000.0001) 
(PID.TID 0000.0001) CAL_READPARMS: finished reading data.cal
(PID.TID 0000.0001) EXF_READPARMS: opening data.exf
(PID.TID 0000.0001)  OPEN_COPY_DATA_FILE: opening file data.exf
(PID.TID 0000.0001) // =======================================================
(PID.TID 0000.0001) // Parameter file "data.exf"
(PID.TID 0000.0001) // =======================================================
(PID.TID 0000.0001) ># *********************
(PID.TID 0000.0001) ># External Forcing Data
(PID.TID 0000.0001) ># *********************
(PID.TID 0000.0001) > &EXF_NML_01
(PID.TID 0000.0001) >#repeatPeriod= 31104000.,
(PID.TID 0000.0001) > exf_iprec         = 32,
(PID.TID 0000.0001) > useEXFYearlyFields= .TRUE.,
(PID.TID 0000.0001) > exf_debugLev      = 4,
(PID.TID 0000.0001) > /
(PID.TID 0000.0001) >
(PID.TID 0000.0001) ># *********************
(PID.TID 0000.0001) > &EXF_NML_02
(PID.TID 0000.0001) > hfluxstartdate1   = 19910116,
(PID.TID 0000.0001) > hfluxstartdate2   = 000000,
(PID.TID 0000.0001) > hfluxperiod       = 2592000.0,
(PID.TID 0000.0001) >#
(PID.TID 0000.0001) > sfluxstartdate1   = 19910116,
(PID.TID 0000.0001) > sfluxstartdate2   = 000000,
(PID.TID 0000.0001) > sfluxperiod       = 2592000.0,
(PID.TID 0000.0001) >#
(PID.TID 0000.0001) > ustressstartdate1 = 19910116,
(PID.TID 0000.0001) > ustressstartdate2 = 000000,
(PID.TID 0000.0001) > ustressperiod     = 2592000.0,
(PID.TID 0000.0001) >#
(PID.TID 0000.0001) > vstressstartdate1 = 19910116,
(PID.TID 0000.0001) > vstressstartdate2 = 000000,
(PID.TID 0000.0001) > vstressperiod     = 2592000.0,
(PID.TID 0000.0001) >#
(PID.TID 0000.0001) > climsststartdate1 = 19910116,
(PID.TID 0000.0001) > climsststartdate2 = 000000,
(PID.TID 0000.0001) > climsstperiod     = 2592000.0,
(PID.TID 0000.0001) ># 2 months restoring timescale for temperature
(PID.TID 0000.0001) > climsstTauRelax   = 5184000.,
(PID.TID 0000.0001) >#
(PID.TID 0000.0001) > climsssstartdate1 = 19910116,
(PID.TID 0000.0001) > climsssstartdate2 = 000000,
(PID.TID 0000.0001) > climsssperiod     = 2592000.0,
(PID.TID 0000.0001) ># 6 months restoring timescale for salinity
(PID.TID 0000.0001) > climsssTauRelax   = 15552000.,
(PID.TID 0000.0001) >#
(PID.TID 0000.0001) > hfluxfile    = 'ncep_qnet.bin',
(PID.TID 0000.0001) >#sfluxfile    = 'ncep_emp.bin',
(PID.TID 0000.0001) > ustressfile  = 'trenberth_taux.bin',
(PID.TID 0000.0001) > vstressfile  = 'trenberth_tauy.bin',
(PID.TID 0000.0001) > climsstfile  = 'lev_sst.bin',
(PID.TID 0000.0001) > climsssfile  = 'lev_sss.bin',
(PID.TID 0000.0001) >#
(PID.TID 0000.0001) > /
(PID.TID 0000.0001) >
(PID.TID 0000.0001) ># *********************
(PID.TID 0000.0001) > &EXF_NML_03
(PID.TID 0000.0001) > /
(PID.TID 0000.0001) >
(PID.TID 0000.0001) ># *********************
(PID.TID 0000.0001) > &EXF_NML_04
(PID.TID 0000.0001) > hflux_lon0    = 2.,
(PID.TID 0000.0001) > hflux_lon_inc = 4.,
(PID.TID 0000.0001) > hflux_lat0    = -78.,
(PID.TID 0000.0001) > hflux_lat_inc = 39*4.,
(PID.TID 0000.0001) > hflux_nlon    = 90,
(PID.TID 0000.0001) > hflux_nlat    = 40,
(PID.TID 0000.0001) >#
(PID.TID 0000.0001) > sflux_lon0    = 2.,
(PID.TID 0000.0001) > sflux_lon_inc = 4.,
(PID.TID 0000.0001) > sflux_lat0    = -78.,
(PID.TID 0000.0001) > sflux_lat_inc = 39*4.,
(PID.TID 0000.0001) > sflux_nlon    = 90,
(PID.TID 0000.0001) > sflux_nlat    = 40,
(PID.TID 0000.0001) >#
(PID.TID 0000.0001) > ustress_lon0    = 0.,
(PID.TID 0000.0001) > ustress_lon_inc = 4.,
(PID.TID 0000.0001) > ustress_lat0    = -78.,
(PID.TID 0000.0001) > ustress_lat_inc = 39*4.,
(PID.TID 0000.0001) > ustress_nlon    = 90,
(PID.TID 0000.0001) > ustress_nlat    = 40,
(PID.TID 0000.0001) >#
(PID.TID 0000.0001) > vstress_lon0    = 2.,
(PID.TID 0000.0001) > vstress_lon_inc = 4.,
(PID.TID 0000.0001) > vstress_lat0    = -80.,
(PID.TID 0000.0001) > vstress_lat_inc = 39*4.,
(PID.TID 0000.0001) > vstress_nlon    = 90,
(PID.TID 0000.0001) > vstress_nlat    = 40,
(PID.TID 0000.0001) >#
(PID.TID 0000.0001) > climsst_lon0    = 2.,
(PID.TID 0000.0001) > climsst_lon_inc = 4.,
(PID.TID 0000.0001) > climsst_lat0    = -78.,
(PID.TID 0000.0001) > climsst_lat_inc = 39*4.,
(PID.TID 0000.0001) > climsst_nlon    = 90,
(PID.TID 0000.0001) > climsst_nlat    = 40,
(PID.TID 0000.0001) >#
(PID.TID 0000.0001) > climsss_lon0    = 2.,
(PID.TID 0000.0001) > climsss_lon_inc = 4.,
(PID.TID 0000.0001) > climsss_lat0    = -78.,
(PID.TID 0000.0001) > climsss_lat_inc = 39*4.,
(PID.TID 0000.0001) > climsss_nlon    = 90,
(PID.TID 0000.0001) > climsss_nlat    = 40,
(PID.TID 0000.0001) >#
(PID.TID 0000.0001) > /
(PID.TID 0000.0001) 
(PID.TID 0000.0001) EXF_READPARMS: reading EXF_NML_01
(PID.TID 0000.0001) EXF_READPARMS: reading EXF_NML_02
(PID.TID 0000.0001) EXF_READPARMS: reading EXF_NML_03
(PID.TID 0000.0001) EXF_READPARMS: reading EXF_NML_04
(PID.TID 0000.0001) EXF_READPARMS: finished reading data.exf
(PID.TID 0000.0001)  GM_READPARMS: opening data.gmredi
(PID.TID 0000.0001)  OPEN_COPY_DATA_FILE: opening file data.gmredi
(PID.TID 0000.0001) // =======================================================
(PID.TID 0000.0001) // Parameter file "data.gmredi"
(PID.TID 0000.0001) // =======================================================
(PID.TID 0000.0001) ># GM+Redi package parameters:
(PID.TID 0000.0001) >
(PID.TID 0000.0001) >#-from MOM :
(PID.TID 0000.0001) ># GM_background_K: 	G & Mc.W  diffusion coefficient
(PID.TID 0000.0001) ># GM_maxSlope    :	max slope of isopycnals
(PID.TID 0000.0001) ># GM_Scrit       :	transition for scaling diffusion coefficient
(PID.TID 0000.0001) ># GM_Sd          :	half width scaling for diffusion coefficient
(PID.TID 0000.0001) ># GM_taper_scheme:	slope clipping or one of the tapering schemes
(PID.TID 0000.0001) ># GM_Kmin_horiz  :	horizontal diffusion minimum value
(PID.TID 0000.0001) >
(PID.TID 0000.0001) >#-Option parameters (needs to "define" options in GMREDI_OPTIONS.h")
(PID.TID 0000.0001) ># GM_isopycK     :	isopycnal diffusion coefficient (default=GM_background_K)
(PID.TID 0000.0001) ># GM_AdvForm     :	turn on GM Advective form       (default=Skew flux form)
(PID.TID 0000.0001) >
(PID.TID 0000.0001) > &GM_PARM01
(PID.TID 0000.0001) >  GM_background_K    = 1.e+3,
(PID.TID 0000.0001) >  GM_taper_scheme    = 'gkw91',
(PID.TID 0000.0001) >  GM_maxSlope        = 1.e-2,
(PID.TID 0000.0001) >  GM_Kmin_horiz      = 50.,
(PID.TID 0000.0001) >  GM_Scrit           = 4.e-3,
(PID.TID 0000.0001) >  GM_Sd              = 1.e-3,
(PID.TID 0000.0001) ># GM_Visbeck_alpha   = 0.,
(PID.TID 0000.0001) ># GM_Visbeck_length  = 2.e+5,
(PID.TID 0000.0001) ># GM_Visbeck_depth   = 1.e+3,
(PID.TID 0000.0001) ># GM_Visbeck_maxval_K= 2.5e+3,
(PID.TID 0000.0001) > /
(PID.TID 0000.0001) >
(PID.TID 0000.0001) >
(PID.TID 0000.0001) 
(PID.TID 0000.0001)  GM_READPARMS: finished reading data.gmredi
(PID.TID 0000.0001) BBL_READPARMS: opening data.bbl
(PID.TID 0000.0001)  OPEN_COPY_DATA_FILE: opening file data.bbl
(PID.TID 0000.0001) // =======================================================
(PID.TID 0000.0001) // Parameter file "data.bbl"
(PID.TID 0000.0001) // =======================================================
(PID.TID 0000.0001) ># BBL runtime parameters
(PID.TID 0000.0001) > &BBL_PARM01
(PID.TID 0000.0001) > bbl_wvel      = 1.D-5
(PID.TID 0000.0001) > bbl_hvel      = 1.D0
(PID.TID 0000.0001) > bbl_initEta   = 20.D0
(PID.TID 0000.0001) > bbl_thetaFile = ' '
(PID.TID 0000.0001) > bbl_saltFile  = ' '
(PID.TID 0000.0001) > bbl_etaFile   = ' '
(PID.TID 0000.0001) > /
(PID.TID 0000.0001) 
(PID.TID 0000.0001) BBL_READPARMS: finished reading data.bbl
(PID.TID 0000.0001)  DIAGNOSTICS_READPARMS: opening data.diagnostics
(PID.TID 0000.0001)  OPEN_COPY_DATA_FILE: opening file data.diagnostics
(PID.TID 0000.0001) // =======================================================
(PID.TID 0000.0001) // Parameter file "data.diagnostics"
(PID.TID 0000.0001) // =======================================================
(PID.TID 0000.0001) ># Diagnostic Package Choices
(PID.TID 0000.0001) >#--------------------
(PID.TID 0000.0001) >#  dumpAtLast (logical): always write output at the end of simulation (default=F)
(PID.TID 0000.0001) >#  diag_mnc   (logical): write to NetCDF files (default=useMNC)
(PID.TID 0000.0001) >#--for each output-stream:
(PID.TID 0000.0001) >#  fileName(n) : prefix of the output file name (max 80c long) for outp.stream n
(PID.TID 0000.0001) >#  frequency(n):< 0 : write snap-shot output every |frequency| seconds
(PID.TID 0000.0001) >#               > 0 : write time-average output every frequency seconds
(PID.TID 0000.0001) >#  timePhase(n)     : write at time = timePhase + multiple of |frequency|
(PID.TID 0000.0001) >#    averagingFreq  : frequency (in s) for periodic averaging interval
(PID.TID 0000.0001) >#    averagingPhase : phase     (in s) for periodic averaging interval
(PID.TID 0000.0001) >#    repeatCycle    : number of averaging intervals in 1 cycle
(PID.TID 0000.0001) >#  levels(:,n) : list of levels to write to file (Notes: declared as REAL)
(PID.TID 0000.0001) >#                when this entry is missing, select all common levels of this list
(PID.TID 0000.0001) >#  fields(:,n) : list of selected diagnostics fields (8.c) in outp.stream n
(PID.TID 0000.0001) >#                (see "available_diagnostics.log" file for the full list of diags)
(PID.TID 0000.0001) >#  missing_value(n) : missing value for real-type fields in output file "n"
(PID.TID 0000.0001) >#  fileFlags(n)     : specific code (8c string) for output file "n"
(PID.TID 0000.0001) >#--------------------
(PID.TID 0000.0001) ># This example dumps EXF diagnostics as snapshot after 30 days
(PID.TID 0000.0001) > &DIAGNOSTICS_LIST
(PID.TID 0000.0001) >  fields(1:4,1) = 'EXFtaux ','EXFtauy ','EXFqnet ','EXFempmr',
(PID.TID 0000.0001) >   fileName(1) = 'diagsEXF',
(PID.TID 0000.0001) >  frequency(1) = -864000.,
(PID.TID 0000.0001) >  fields(1:2,2)  = 'THETA   ','SALT    ',
(PID.TID 0000.0001) >   levels(1,2) = 1.,
(PID.TID 0000.0001) >   fileName(2) = 'diagSurf',
(PID.TID 0000.0001) >  frequency(2) = -864000.,
(PID.TID 0000.0001) >  fields(1:2,3)  = 'UVEL    ', 'VVEL    ',
(PID.TID 0000.0001) >   levels(1,3) = 2.,
(PID.TID 0000.0001) >   fileName(3) = 'diag_vel_k2',
(PID.TID 0000.0001) >  frequency(3) = -864000.,
(PID.TID 0000.0001) >  fields(1,4)  = 'FrzForcT',
(PID.TID 0000.0001) >   fileName(4) = 'FrzForcT',
(PID.TID 0000.0001) >  frequency(4) = 864000.,
(PID.TID 0000.0001) > /
(PID.TID 0000.0001) >
(PID.TID 0000.0001) >#--------------------
(PID.TID 0000.0001) ># Parameter for Diagnostics of per level statistics:
(PID.TID 0000.0001) >#--------------------
(PID.TID 0000.0001) >#  diagSt_mnc (logical): write stat-diags to NetCDF files (default=diag_mnc)
(PID.TID 0000.0001) >#  diagSt_regMaskFile : file containing the region-mask to read-in
(PID.TID 0000.0001) >#  nSetRegMskFile   : number of region-mask sets within the region-mask file
(PID.TID 0000.0001) >#  set_regMask(i)   : region-mask set-index that identifies the region "i"
(PID.TID 0000.0001) >#  val_regMask(i)   : region "i" identifier value in the region mask
(PID.TID 0000.0001) >#--for each output-stream:
(PID.TID 0000.0001) >#  stat_fName(n) : prefix of the output file name (max 80c long) for outp.stream n
(PID.TID 0000.0001) >#  stat_freq(n):< 0 : write snap-shot output every |stat_freq| seconds
(PID.TID 0000.0001) >#               > 0 : write time-average output every stat_freq seconds
(PID.TID 0000.0001) >#  stat_phase(n)    : write at time = stat_phase + multiple of |stat_freq|
(PID.TID 0000.0001) >#  stat_region(:,n) : list of "regions" (default: 1 region only=global)
(PID.TID 0000.0001) >#  stat_fields(:,n) : list of selected diagnostics fields (8.c) in outp.stream n
(PID.TID 0000.0001) >#                (see "available_diagnostics.log" file for the full list of diags)
(PID.TID 0000.0001) >#--------------------
(PID.TID 0000.0001) > &DIAG_STATIS_PARMS
(PID.TID 0000.0001) >#stat_fields(1:5,1)  = 'ETAN    ','UVEL    ','VVEL    ','WVEL    ', 'THETA   ',
(PID.TID 0000.0001) ># stat_fName(1) = 'dynStDiag',
(PID.TID 0000.0001) >#  stat_freq(1) = -864000.,
(PID.TID 0000.0001) ># stat_phase(1) = 0.,
(PID.TID 0000.0001) > /
(PID.TID 0000.0001) 
(PID.TID 0000.0001) S/R DIAGNOSTICS_READPARMS, read namelist "diagnostics_list": start
(PID.TID 0000.0001) S/R DIAGNOSTICS_READPARMS, read namelist "diagnostics_list": OK
(PID.TID 0000.0001) S/R DIAGNOSTICS_READPARMS, read namelist "DIAG_STATIS_PARMS": start
(PID.TID 0000.0001) S/R DIAGNOSTICS_READPARMS, read namelist "DIAG_STATIS_PARMS": OK
(PID.TID 0000.0001)  DIAGNOSTICS_READPARMS: global parameter summary:
(PID.TID 0000.0001)  dumpAtLast = /* always write time-ave diags at the end */
(PID.TID 0000.0001)                   F
(PID.TID 0000.0001)     ;
(PID.TID 0000.0001)  diag_mnc =   /* write NetCDF output files */
(PID.TID 0000.0001)                   F
(PID.TID 0000.0001)     ;
(PID.TID 0000.0001)  useMissingValue = /* put MissingValue where mask = 0 */
(PID.TID 0000.0001)                   F
(PID.TID 0000.0001)     ;
(PID.TID 0000.0001)  diagCG_maxIters = /* max number of iters in diag_cg2d */
(PID.TID 0000.0001)                     500
(PID.TID 0000.0001)     ;
(PID.TID 0000.0001)  diagCG_resTarget = /* residual target for diag_cg2d */
(PID.TID 0000.0001)                 1.000000000000000E-13
(PID.TID 0000.0001)     ;
(PID.TID 0000.0001)  diagCG_pcOffDFac = /* preconditioner off-diagonal factor */
(PID.TID 0000.0001)                 9.611687812379854E-01
(PID.TID 0000.0001)     ;
(PID.TID 0000.0001) -----------------------------------------------------
(PID.TID 0000.0001)  DIAGNOSTICS_READPARMS: active diagnostics summary:
(PID.TID 0000.0001) -----------------------------------------------------
(PID.TID 0000.0001) Creating Output Stream: diagsEXF
(PID.TID 0000.0001) Output Frequency:    -864000.000000 ; Phase:      432000.000000
(PID.TID 0000.0001)  Averaging Freq.:          0.000000 , Phase:           0.000000 , Cycle:   1
(PID.TID 0000.0001)  missing value: -9.990000000000E+02
(PID.TID 0000.0001)  Levels:    will be set later
(PID.TID 0000.0001)  Fields:    EXFtaux  EXFtauy  EXFqnet  EXFempmr
(PID.TID 0000.0001) Creating Output Stream: diagSurf
(PID.TID 0000.0001) Output Frequency:    -864000.000000 ; Phase:      432000.000000
(PID.TID 0000.0001)  Averaging Freq.:          0.000000 , Phase:           0.000000 , Cycle:   1
(PID.TID 0000.0001)  missing value: -9.990000000000E+02
(PID.TID 0000.0001)  Levels:       1.
(PID.TID 0000.0001)  Fields:    THETA    SALT
(PID.TID 0000.0001) Creating Output Stream: diag_vel_k2
(PID.TID 0000.0001) Output Frequency:    -864000.000000 ; Phase:      432000.000000
(PID.TID 0000.0001)  Averaging Freq.:          0.000000 , Phase:           0.000000 , Cycle:   1
(PID.TID 0000.0001)  missing value: -9.990000000000E+02
(PID.TID 0000.0001)  Levels:       2.
(PID.TID 0000.0001)  Fields:    UVEL     VVEL
(PID.TID 0000.0001) Creating Output Stream: FrzForcT
(PID.TID 0000.0001) Output Frequency:     864000.000000 ; Phase:           0.000000
(PID.TID 0000.0001)  Averaging Freq.:     864000.000000 , Phase:           0.000000 , Cycle:   1
(PID.TID 0000.0001)  missing value: -9.990000000000E+02
(PID.TID 0000.0001)  Levels:    will be set later
(PID.TID 0000.0001)  Fields:    FrzForcT
(PID.TID 0000.0001) -----------------------------------------------------
(PID.TID 0000.0001)  DIAGNOSTICS_READPARMS: statistics diags. summary:
(PID.TID 0000.0001) -----------------------------------------------------
(PID.TID 0000.0001) 
(PID.TID 0000.0001) SET_PARMS: done
(PID.TID 0000.0001) Enter INI_VERTICAL_GRID: setInterFDr=    T ; setCenterDr=    F
(PID.TID 0000.0001) %MON XC_max                       =   3.5800000000000E+02
(PID.TID 0000.0001) %MON XC_min                       =   2.0000000000000E+00
(PID.TID 0000.0001) %MON XC_mean                      =   1.8000000000000E+02
(PID.TID 0000.0001) %MON XC_sd                        =   1.0391663325314E+02
(PID.TID 0000.0001) %MON XG_max                       =   3.5600000000000E+02
(PID.TID 0000.0001) %MON XG_min                       =   0.0000000000000E+00
(PID.TID 0000.0001) %MON XG_mean                      =   1.7800000000000E+02
(PID.TID 0000.0001) %MON XG_sd                        =   1.0391663325314E+02
(PID.TID 0000.0001) %MON DXC_max                      =   4.4443898815675E+05
(PID.TID 0000.0001) %MON DXC_min                      =   9.2460385861875E+04
(PID.TID 0000.0001) %MON DXC_mean                     =   3.1372497618153E+05
(PID.TID 0000.0001) %MON DXC_sd                       =   1.1216447457560E+05
(PID.TID 0000.0001) %MON DXF_max                      =   4.4443898815675E+05
(PID.TID 0000.0001) %MON DXF_min                      =   9.2460385861875E+04
(PID.TID 0000.0001) %MON DXF_mean                     =   3.1372497618153E+05
(PID.TID 0000.0001) %MON DXF_sd                       =   1.1216447457560E+05
(PID.TID 0000.0001) %MON DXG_max                      =   4.4470989340816E+05
(PID.TID 0000.0001) %MON DXG_min                      =   7.7223062580781E+04
(PID.TID 0000.0001) %MON DXG_mean                     =   3.1353386340261E+05
(PID.TID 0000.0001) %MON DXG_sd                       =   1.1256651772502E+05
(PID.TID 0000.0001) %MON DXV_max                      =   4.4470989340816E+05
(PID.TID 0000.0001) %MON DXV_min                      =   7.7223062580781E+04
(PID.TID 0000.0001) %MON DXV_mean                     =   3.1353386340261E+05
(PID.TID 0000.0001) %MON DXV_sd                       =   1.1256651772502E+05
(PID.TID 0000.0001) %MON YC_max                       =   7.8000000000000E+01
(PID.TID 0000.0001) %MON YC_min                       =  -7.8000000000000E+01
(PID.TID 0000.0001) %MON YC_mean                      =   0.0000000000000E+00
(PID.TID 0000.0001) %MON YC_sd                        =   4.6173585522461E+01
(PID.TID 0000.0001) %MON YG_max                       =   7.6000000000000E+01
(PID.TID 0000.0001) %MON YG_min                       =  -8.0000000000000E+01
(PID.TID 0000.0001) %MON YG_mean                      =  -2.0000000000000E+00
(PID.TID 0000.0001) %MON YG_sd                        =   4.6173585522461E+01
(PID.TID 0000.0001) %MON DYC_max                      =   4.4470989340816E+05
(PID.TID 0000.0001) %MON DYC_min                      =   4.4470989340816E+05
(PID.TID 0000.0001) %MON DYC_mean                     =   4.4470989340817E+05
(PID.TID 0000.0001) %MON DYC_sd                       =   1.4668330550194E-08
(PID.TID 0000.0001) %MON DYF_max                      =   4.4470989340816E+05
(PID.TID 0000.0001) %MON DYF_min                      =   4.4470989340816E+05
(PID.TID 0000.0001) %MON DYF_mean                     =   4.4470989340817E+05
(PID.TID 0000.0001) %MON DYF_sd                       =   1.4668330550194E-08
(PID.TID 0000.0001) %MON DYG_max                      =   4.4470989340816E+05
(PID.TID 0000.0001) %MON DYG_min                      =   4.4470989340816E+05
(PID.TID 0000.0001) %MON DYG_mean                     =   4.4470989340817E+05
(PID.TID 0000.0001) %MON DYG_sd                       =   1.4668330550194E-08
(PID.TID 0000.0001) %MON DYU_max                      =   4.4470989340816E+05
(PID.TID 0000.0001) %MON DYU_min                      =   4.4470989340816E+05
(PID.TID 0000.0001) %MON DYU_mean                     =   4.4470989340817E+05
(PID.TID 0000.0001) %MON DYU_sd                       =   1.4668330550194E-08
(PID.TID 0000.0001) %MON RA_max                       =   1.9760627980089E+11
(PID.TID 0000.0001) %MON RA_min                       =   4.1109698667290E+10
(PID.TID 0000.0001) %MON RA_mean                      =   1.3948826965196E+11
(PID.TID 0000.0001) %MON RA_sd                        =   4.9870522472902E+10
(PID.TID 0000.0001) %MON RAW_max                      =   1.9760627980089E+11
(PID.TID 0000.0001) %MON RAW_min                      =   4.1109698667290E+10
(PID.TID 0000.0001) %MON RAW_mean                     =   1.3948826965196E+11
(PID.TID 0000.0001) %MON RAW_sd                       =   4.9870522472902E+10
(PID.TID 0000.0001) %MON RAS_max                      =   1.9772672958215E+11
(PID.TID 0000.0001) %MON RAS_min                      =   3.4334886267983E+10
(PID.TID 0000.0001) %MON RAS_mean                     =   1.3940329716694E+11
(PID.TID 0000.0001) %MON RAS_sd                       =   5.0049278732353E+10
(PID.TID 0000.0001) %MON RAZ_max                      =   1.9772672958215E+11
(PID.TID 0000.0001) %MON RAZ_min                      =   3.4334886267983E+10
(PID.TID 0000.0001) %MON RAZ_mean                     =   1.3940329716694E+11
(PID.TID 0000.0001) %MON RAZ_sd                       =   5.0049278732353E+10
(PID.TID 0000.0001) %MON AngleCS_max                  =   1.0000000000000E+00
(PID.TID 0000.0001) %MON AngleCS_min                  =   1.0000000000000E+00
(PID.TID 0000.0001) %MON AngleCS_mean                 =   1.0000000000000E+00
(PID.TID 0000.0001) %MON AngleCS_sd                   =   0.0000000000000E+00
(PID.TID 0000.0001) %MON AngleSN_max                  =   0.0000000000000E+00
(PID.TID 0000.0001) %MON AngleSN_min                  =   0.0000000000000E+00
(PID.TID 0000.0001) %MON AngleSN_mean                 =   0.0000000000000E+00
(PID.TID 0000.0001) %MON AngleSN_sd                   =   0.0000000000000E+00
(PID.TID 0000.0001)  MDS_READ_FIELD: opening global file: bathymetry.bin
(PID.TID 0000.0001) // =======================================================
(PID.TID 0000.0001) // Field Model R_low (ini_masks_etc)
(PID.TID 0000.0001) // CMIN =         -5.200000000000000E+03
(PID.TID 0000.0001) // CMAX =         -1.200000000000000E+02
(PID.TID 0000.0001) // CINT =          1.881481481481482E+02
(PID.TID 0000.0001) // SYMBOLS (CMIN->CMAX): -abcdefghijklmnopqrstuvwxyz+
(PID.TID 0000.0001) //                  0.0: .
(PID.TID 0000.0001) // RANGE I (Lo:Hi:Step):(    -1:    92:     1)
(PID.TID 0000.0001) // RANGE J (Lo:Hi:Step):(    42:    -1:    -1)
(PID.TID 0000.0001) // RANGE K (Lo:Hi:Step):(   1:   1:   1)
(PID.TID 0000.0001) // =======================================================
(PID.TID 0000.0001) K =   1
(PID.TID 0000.0001) //                I=8       I=18      I=28      I=38      I=44      I=54      I=64      I=74      I=84
(PID.TID 0000.0001) // |--J--|101234567|901234567|901234567|901234567|901234567|567890123|567890123|567890123|567890123|56789012
(PID.TID 0000.0001) //     42 ............................................zyxxmyxxmgfeeefefgimnpwwwy..+zyy.....yyyyoiiihhz+.....
(PID.TID 0000.0001) //     41 ..................................................................................................
(PID.TID 0000.0001) //     40 qlloqz+.++++zzz++++++......................................................................+++qllo
(PID.TID 0000.0001) //     39 slloorzzzzzzzzz+...++.........................................................yxxz........+zvusllo
(PID.TID 0000.0001) //     38 mqpporzzzzzz+++...............................................................zxxy+......zyyvsmqpp
(PID.TID 0000.0001) //     37 mmmuz......................................................................++...zy+...yttyy.+smmmu
(PID.TID 0000.0001) //     36 utt+.........................................mm++mm++....................+++++++znmm.yoowssvuyutt+
(PID.TID 0000.0001) //     35 ++++.................................+zzz..rrmmkkmmkk+...+gghn...........+++....+nmiijlsoopuww++++
(PID.TID 0000.0001) //     34 .....................................+vvy.ggqyxv+yxv+y.ccdffhim..................+nihhikkihhm+....
(PID.TID 0000.0001) //     33 +.....................................uuz---h----------aaabdefin+.................zqvddflifffw+...
(PID.TID 0000.0001) //     32 +.....................................+t----h-------------acdfgnn................+++gdffkofffm+...
(PID.TID 0000.0001) //     31 ......................................-----ad------------abddegil..............qbaafccdhqqgddm....
(PID.TID 0000.0001) //     30 .....................................f----b--b---b------------abd............zfbb--fbcdosjfddi....
(PID.TID 0000.0001) //     29 ...................................tu----e---fjg-fjg----------abdf...........eaac--abfmijaadgi....
(PID.TID 0000.0001) //     28 .................................+xfl-----------------------bdedefi.........qbaa---aemfbbaaejz....
(PID.TID 0000.0001) //     27 ................xx..............+wfgfpf--------ea--eallc---bbbccefgi...+++x.qb-----akfa---ah......
(PID.TID 0000.0001) //     26 ................xnn...........+vd---dna------a--aa--aicfna---aabdfghku.++xssuy-----bgca---ci......
(PID.TID 0000.0001) //     25 ................iiik...oo+...+ivd---doaa-bc--ilglilglf--aa---aabcghhkll...ssum+xaaacjbaabdjk......
(PID.TID 0000.0001) //     24 ..............xnheeft.kkk+...uii.aagdm----aa---------a-------bbbcdefjljjju.zummwwbbchba--abi......
(PID.TID 0000.0001) //     23 ..............xgheefp.iikw...uuw..fihi----fed---------eaaa--bbbbcdfflkjiiiq....zykccefa--abd......
(PID.TID 0000.0001) //     22 uss...........bbelffslffkk...zz.wqkeeqoheccdfa---a-----egabaabcdddegghliiiqq......xeeehheehccquss.
(PID.TID 0000.0001) //     21 bbeir........nbbcdjhqdddiiz.....wqfeelgghmedea---a-----bibbcddddddefghklnqoo........ieeflhgcccbbei
(PID.TID 0000.0001) //     20 bbder.......ldcccdgkccccidd......z.vkkktqqhegg---g----aaacddddddddefghkiiijl.........nhfa--gfcbbde
(PID.TID 0000.0001) //     19 cdaaf.......kddosggpaaaibbccx...+z+.....r+nlec---c---agaaabcddccddefikfgffff...........d---cjhcdaa
(PID.TID 0000.0001) //     18 d---d.......kglggvliaaaibbcaaeaiv++...qqzolhecccfcccfdgkaabcdfccdeeikgfgffdd+..........d---djhd---
(PID.TID 0000.0001) //     17 c---c.......l.feewlfaaaoaa----aiv.....qqnllslmlofmlofcdbaacceffffhhligfigeddj.........hd---ckhc---
(PID.TID 0000.0001) //     16 ba--c......tn.ddgnlfdaaqa-----lv.......vnllvllnwvlnwv--accivomfffhilhgfffeddjf........re--aeigba--
(PID.TID 0000.0001) //     15 b--dpz....+ll.ccdfhmdddlc----av.........otsxoomv-omv---abccddfihgijkhgfffeejfff......+fd---ckfb--d
(PID.TID 0000.0001) //     14 c--mcl....weeqbaafilkfend--eagy.........hhstofft-fft----aacdheefijkmjhhjijiffff.....zlfdaaadlfc--m
(PID.TID 0000.0001) //     13 cclbbg....nccobaaiddgkffqrqeaal.........eeutqfft-fft------aaceeffhijlkjhhigfffq....+jgfodccflhcclb
(PID.TID 0000.0001) //     12 hgaaacw+iiicclemhdddfliigfdcaabfaaaz....ccsurqpc-qpc--------abcifffikiiihhggff.....kbbbdfffglhhgaa
(PID.TID 0000.0001) //     11 gcaaacbbifccennhbbdefnihgfdccaaaa----..dcccnt.nca.ncab-------aabcdfilhggjiggff....l---abcefjlkgcaa
(PID.TID 0000.0001) //     10 fcaaccbdaacfrllfbbdegkmmljhfdddba----d.dcccfx.nyr.nyrebaba----abcdgilhfeegijgi..+w--aa-abcfilkfcaa
(PID.TID 0000.0001) //      9 ffcdcccaaaoqsolfdeehikihhlllgfedcccccdmdcccf.vyfavyfaaaaaaaa--abdehmjhfeeefglv.++w-----abcdfklffcd
(PID.TID 0000.0001) //      8 iffjklcaafddffeeccvznkfffhhhlkjifgjkkfeeddfsyvcaavcaaaaaaccdcccdfgjligedbbceg+.++xffn--cfddefliffj
(PID.TID 0000.0001) //      7 mqnnbbkkf--bmbaabbgtykfddeffeeddccdfhlffeelfbaaaaaaaaaacddeghgjgjlligeddaaabedfiiiiiisvkfkecchmqnn
(PID.TID 0000.0001) //      6 ca-------------aabcelttdddedddddccccdfkkiiffbaaaaaaaabcdgimmkmefecaaabbbaaabbdfiiiiispmmregifcca--
(PID.TID 0000.0001) //      5 -------a-------aaccehhhiddeddddddcccdfiikomodddefddefffmlmigedccaaaaaaaababbbdfiijsqgeccccbaa-----
(PID.TID 0000.0001) //      4 -ahebaabbbbbeihffgijiiiijpywnnpokkomkiiijmmmolkomlkommmgffeeedccaaaaaabbcccefhmz..yjgeccccbaa--ahe
(PID.TID 0000.0001) //      3 ffhhrpjiiwyy............................yxotmjjjjjjjjgfeeeeeeddeffffheddeghjkyy..yqjgeddccdbbgffhh
(PID.TID 0000.0001) //      2 ............................................zyxxmyxxmgfeeefefgimnpwwwy..+zyy.....yyyyoiiihhz+.....
(PID.TID 0000.0001) //      1 ..................................................................................................
(PID.TID 0000.0001) //      0 qlloqz+.++++zzz++++++......................................................................+++qllo
(PID.TID 0000.0001) //     -1 slloorzzzzzzzzz+...++.........................................................yxxz........+zvusllo
(PID.TID 0000.0001) // =======================================================
(PID.TID 0000.0001) // END OF FIELD                                          =
(PID.TID 0000.0001) // =======================================================
(PID.TID 0000.0001) 
(PID.TID 0000.0001) // =======================================================
(PID.TID 0000.0001) // Field Model Ro_surf (ini_masks_etc)
(PID.TID 0000.0001) // CMIN =          1.000000000000000E+32
(PID.TID 0000.0001) // CMAX =         -1.000000000000000E+32
(PID.TID 0000.0001) // CINT =          0.000000000000000E+00
(PID.TID 0000.0001) // SYMBOLS (CMIN->CMAX): -abcdefghijklmnopqrstuvwxyz+
(PID.TID 0000.0001) //                  0.0: .
(PID.TID 0000.0001) // RANGE I (Lo:Hi:Step):(    -1:    92:     1)
(PID.TID 0000.0001) // RANGE J (Lo:Hi:Step):(    42:    -1:    -1)
(PID.TID 0000.0001) // RANGE K (Lo:Hi:Step):(   1:   1:   1)
(PID.TID 0000.0001) // =======================================================
(PID.TID 0000.0001) // =======================================================
(PID.TID 0000.0001) // END OF FIELD                                          =
(PID.TID 0000.0001) // =======================================================
(PID.TID 0000.0001) 
(PID.TID 0000.0001) // =======================================================
(PID.TID 0000.0001) // Field hFacC at iteration          0
(PID.TID 0000.0001) // CMIN =          1.000000000000000E+00
(PID.TID 0000.0001) // CMAX =          1.000000000000000E+00
(PID.TID 0000.0001) // CINT =          0.000000000000000E+00
(PID.TID 0000.0001) // SYMBOLS (CMIN->CMAX): -abcdefghijklmnopqrstuvwxyz+
(PID.TID 0000.0001) //                  0.0: .
(PID.TID 0000.0001) // RANGE I (Lo:Hi:Step):(    -1:    92:     1)
(PID.TID 0000.0001) // RANGE J (Lo:Hi:Step):(    42:    -1:    -1)
(PID.TID 0000.0001) // RANGE K (Lo:Hi:Step):(   1:   1:   1)
(PID.TID 0000.0001) // =======================================================
(PID.TID 0000.0001) // =======================================================
(PID.TID 0000.0001) // END OF FIELD                                          =
(PID.TID 0000.0001) // =======================================================
(PID.TID 0000.0001) 
(PID.TID 0000.0001) // =======================================================
(PID.TID 0000.0001) // Field hFacW at iteration          0
(PID.TID 0000.0001) // CMIN =          1.000000000000000E+00
(PID.TID 0000.0001) // CMAX =          1.000000000000000E+00
(PID.TID 0000.0001) // CINT =          0.000000000000000E+00
(PID.TID 0000.0001) // SYMBOLS (CMIN->CMAX): -abcdefghijklmnopqrstuvwxyz+
(PID.TID 0000.0001) //                  0.0: .
(PID.TID 0000.0001) // RANGE I (Lo:Hi:Step):(    -1:    92:     1)
(PID.TID 0000.0001) // RANGE J (Lo:Hi:Step):(    42:    -1:    -1)
(PID.TID 0000.0001) // RANGE K (Lo:Hi:Step):(   1:   1:   1)
(PID.TID 0000.0001) // =======================================================
(PID.TID 0000.0001) // =======================================================
(PID.TID 0000.0001) // END OF FIELD                                          =
(PID.TID 0000.0001) // =======================================================
(PID.TID 0000.0001) 
(PID.TID 0000.0001) // =======================================================
(PID.TID 0000.0001) // Field hFacS at iteration          0
(PID.TID 0000.0001) // CMIN =          1.000000000000000E+00
(PID.TID 0000.0001) // CMAX =          1.000000000000000E+00
(PID.TID 0000.0001) // CINT =          0.000000000000000E+00
(PID.TID 0000.0001) // SYMBOLS (CMIN->CMAX): -abcdefghijklmnopqrstuvwxyz+
(PID.TID 0000.0001) //                  0.0: .
(PID.TID 0000.0001) // RANGE I (Lo:Hi:Step):(    -1:    92:     1)
(PID.TID 0000.0001) // RANGE J (Lo:Hi:Step):(    42:    -1:    -1)
(PID.TID 0000.0001) // RANGE K (Lo:Hi:Step):(   1:   1:   1)
(PID.TID 0000.0001) // =======================================================
(PID.TID 0000.0001) // =======================================================
(PID.TID 0000.0001) // END OF FIELD                                          =
(PID.TID 0000.0001) // =======================================================
(PID.TID 0000.0001) 
(PID.TID 0000.0001) 
(PID.TID 0000.0001) // =======================================================
(PID.TID 0000.0001) // Calendar configuration >>> START <<<
(PID.TID 0000.0001) // =======================================================
(PID.TID 0000.0001) 
(PID.TID 0000.0001) modelstart = /* Start time of the model integration [s] */
(PID.TID 0000.0001)                 0.000000000000000E+00
(PID.TID 0000.0001)     ;
(PID.TID 0000.0001) modelend  = /* End time of the model integration [s] */
(PID.TID 0000.0001)                 8.640000000000000E+05
(PID.TID 0000.0001)     ;
(PID.TID 0000.0001) modelStep = /* Time interval for a model forward step [s] */
(PID.TID 0000.0001)                 4.320000000000000E+04
(PID.TID 0000.0001)     ;
(PID.TID 0000.0001) usingGregorianCalendar= /* Calendar Type: Gregorian Calendar */
(PID.TID 0000.0001)                   F
(PID.TID 0000.0001)     ;
(PID.TID 0000.0001) usingJulianCalendar = /* Calendar Type: Julian Calendar */
(PID.TID 0000.0001)                   F
(PID.TID 0000.0001)     ;
(PID.TID 0000.0001) usingNoLeapYearCal  = /* Calendar Type: without Leap Year */
(PID.TID 0000.0001)                   F
(PID.TID 0000.0001)     ;
(PID.TID 0000.0001) usingModelCalendar  = /* Calendar Type: Model Calendar */
(PID.TID 0000.0001)                   T
(PID.TID 0000.0001)     ;
(PID.TID 0000.0001) modelStartDate YYYYMMDD = /* Model start date YYYY-MM-DD */
(PID.TID 0000.0001)                19920101
(PID.TID 0000.0001)     ;
(PID.TID 0000.0001)   modelStartDate HHMMSS = /* Model start date HH-MM-SS  */
(PID.TID 0000.0001)                       0
(PID.TID 0000.0001)     ;
(PID.TID 0000.0001) modelEndDate   YYYYMMDD = /* Model end date YYYY-MM-DD */
(PID.TID 0000.0001)                19920111
(PID.TID 0000.0001)     ;
(PID.TID 0000.0001)   modelEndDate   HHMMSS = /* Model end date HH-MM-SS  */
(PID.TID 0000.0001)                       0
(PID.TID 0000.0001)     ;
(PID.TID 0000.0001) intyears = /* Number of calendar years affected by the integration */
(PID.TID 0000.0001)                       1
(PID.TID 0000.0001)     ;
(PID.TID 0000.0001) intmonths= /* Number of calendar months affected by the integration */
(PID.TID 0000.0001)                       1
(PID.TID 0000.0001)     ;
(PID.TID 0000.0001) intdays = /* Number of calendar days affected by the integration */
(PID.TID 0000.0001)                      10
(PID.TID 0000.0001)     ;
(PID.TID 0000.0001) modelIter0 = /* Base timestep number  */
(PID.TID 0000.0001)                       0
(PID.TID 0000.0001)     ;
(PID.TID 0000.0001) modelIterEnd = /* Final timestep number  */
(PID.TID 0000.0001)                      20
(PID.TID 0000.0001)     ;
(PID.TID 0000.0001) modelIntSteps= /* Number of model timesteps  */
(PID.TID 0000.0001)                      20
(PID.TID 0000.0001)     ;
(PID.TID 0000.0001) 
(PID.TID 0000.0001) // =======================================================
(PID.TID 0000.0001) // Calendar configuration  >>> END <<<
(PID.TID 0000.0001) // =======================================================
(PID.TID 0000.0001) 
(PID.TID 0000.0001) GAD_INIT_FIXED: GAD_OlMinSize=  1  0  1
(PID.TID 0000.0001) 
(PID.TID 0000.0001) // ===================================
(PID.TID 0000.0001) // GAD parameters :
(PID.TID 0000.0001) // ===================================
(PID.TID 0000.0001) tempAdvScheme =   /* Temp. Horiz.Advection scheme selector */
(PID.TID 0000.0001)                       2
(PID.TID 0000.0001)     ;
(PID.TID 0000.0001) tempVertAdvScheme =   /* Temp. Vert. Advection scheme selector */
(PID.TID 0000.0001)                       2
(PID.TID 0000.0001)     ;
(PID.TID 0000.0001) tempMultiDimAdvec =   /* use Muti-Dim Advec method for Temp */
(PID.TID 0000.0001)                   F
(PID.TID 0000.0001)     ;
(PID.TID 0000.0001) tempSOM_Advection = /* use 2nd Order Moment Advection for Temp */
(PID.TID 0000.0001)                   F
(PID.TID 0000.0001)     ;
(PID.TID 0000.0001) AdamsBashforthGt = /* apply Adams-Bashforth extrapolation on Gt */
(PID.TID 0000.0001)                   T
(PID.TID 0000.0001)     ;
(PID.TID 0000.0001) AdamsBashforth_T = /* apply Adams-Bashforth extrapolation on Temp */
(PID.TID 0000.0001)                   F
(PID.TID 0000.0001)     ;
(PID.TID 0000.0001) saltAdvScheme =   /* Salt. Horiz.advection scheme selector */
(PID.TID 0000.0001)                       2
(PID.TID 0000.0001)     ;
(PID.TID 0000.0001) saltVertAdvScheme =   /* Salt. Vert. Advection scheme selector */
(PID.TID 0000.0001)                       2
(PID.TID 0000.0001)     ;
(PID.TID 0000.0001) saltMultiDimAdvec =   /* use Muti-Dim Advec method for Salt */
(PID.TID 0000.0001)                   F
(PID.TID 0000.0001)     ;
(PID.TID 0000.0001) saltSOM_Advection = /* use 2nd Order Moment Advection for Salt */
(PID.TID 0000.0001)                   F
(PID.TID 0000.0001)     ;
(PID.TID 0000.0001) AdamsBashforthGs = /* apply Adams-Bashforth extrapolation on Gs */
(PID.TID 0000.0001)                   T
(PID.TID 0000.0001)     ;
(PID.TID 0000.0001) AdamsBashforth_S = /* apply Adams-Bashforth extrapolation on Salt */
(PID.TID 0000.0001)                   F
(PID.TID 0000.0001)     ;
(PID.TID 0000.0001) // ===================================
(PID.TID 0000.0001) 
(PID.TID 0000.0001) // =======================================================
(PID.TID 0000.0001) // External forcing (EXF) configuration >>> START <<<
(PID.TID 0000.0001) // =======================================================
(PID.TID 0000.0001) 
(PID.TID 0000.0001)  EXF general parameters:
(PID.TID 0000.0001) 
(PID.TID 0000.0001) exf_iprec = /* exf file precision */
(PID.TID 0000.0001)                      32
(PID.TID 0000.0001)     ;
(PID.TID 0000.0001) useExfYearlyFields = /* add extension _YEAR to input file names */
(PID.TID 0000.0001)                   T
(PID.TID 0000.0001)     ;
(PID.TID 0000.0001) twoDigitYear = /* use 2-digit year extension */
(PID.TID 0000.0001)                   F
(PID.TID 0000.0001)     ;
(PID.TID 0000.0001) useExfCheckRange = /* check for fields range */
(PID.TID 0000.0001)                   T
(PID.TID 0000.0001)     ;
(PID.TID 0000.0001) exf_output_interp = /* output directly interpolation result */
(PID.TID 0000.0001)                   F
(PID.TID 0000.0001)     ;
(PID.TID 0000.0001) exf_debugLev = /* select EXF-debug printing level */
(PID.TID 0000.0001)                       4
(PID.TID 0000.0001)     ;
(PID.TID 0000.0001) exf_monFreq  = /* EXF monitor frequency [ s ] */
(PID.TID 0000.0001)                 1.000000000000000E+00
(PID.TID 0000.0001)     ;
(PID.TID 0000.0001) repeatPeriod = /* period for cycling forcing dataset [ s ] */
(PID.TID 0000.0001)                 0.000000000000000E+00
(PID.TID 0000.0001)     ;
(PID.TID 0000.0001) climTempFreeze= /* Minimum climatological temperature [deg.C] */
(PID.TID 0000.0001)                -1.900000000000000E+00
(PID.TID 0000.0001)     ;
(PID.TID 0000.0001) windStressMax = /* Maximum absolute windstress [ Pa ] */
(PID.TID 0000.0001)                 2.000000000000000E+00
(PID.TID 0000.0001)     ;
(PID.TID 0000.0001) stressIsOnCgrid = /* set u,v_stress on Arakawa C-grid */
(PID.TID 0000.0001)                   F
(PID.TID 0000.0001)     ;
(PID.TID 0000.0001) rotateStressOnAgrid = /* rotate u,v_stress on Arakawa A-grid */
(PID.TID 0000.0001)                   F
(PID.TID 0000.0001)     ;
(PID.TID 0000.0001) cen2kel = /* conversion of deg. Centigrade to Kelvin [K] */
(PID.TID 0000.0001)                 2.731500000000000E+02
(PID.TID 0000.0001)     ;
(PID.TID 0000.0001) gravity_mks= /* gravitational acceleration [m/s^2] */
(PID.TID 0000.0001)                 9.810000000000000E+00
(PID.TID 0000.0001)     ;
(PID.TID 0000.0001) atmrho =  /* mean atmospheric density [kg/m^3] */
(PID.TID 0000.0001)                 1.200000000000000E+00
(PID.TID 0000.0001)     ;
(PID.TID 0000.0001) atmcp =  /* mean atmospheric specific heat [J/kg/K] */
(PID.TID 0000.0001)                 1.005000000000000E+03
(PID.TID 0000.0001)     ;
(PID.TID 0000.0001) flamb =  /* latent heat of evaporation [J/kg] */
(PID.TID 0000.0001)                 2.500000000000000E+06
(PID.TID 0000.0001)     ;
(PID.TID 0000.0001) flami =  /* latent heat of pure-ice melting [J/kg] */
(PID.TID 0000.0001)                 3.340000000000000E+05
(PID.TID 0000.0001)     ;
(PID.TID 0000.0001) cvapor_fac = /* const. for Saturation calculation [?] */
(PID.TID 0000.0001)                 6.403800000000000E+05
(PID.TID 0000.0001)     ;
(PID.TID 0000.0001) cvapor_exp = /* const. for Saturation calculation [?] */
(PID.TID 0000.0001)                 5.107400000000000E+03
(PID.TID 0000.0001)     ;
(PID.TID 0000.0001) cvapor_fac_ice= /* const. for Saturation calculation [?] */
(PID.TID 0000.0001)                 1.163780000000000E+07
(PID.TID 0000.0001)     ;
(PID.TID 0000.0001) cvapor_exp_ice= /* const. for Saturation calculation [?] */
(PID.TID 0000.0001)                 5.897800000000000E+03
(PID.TID 0000.0001)     ;
(PID.TID 0000.0001) humid_fac = /* humidity coef. in virtual temp. [(kg/kg)^-1] */
(PID.TID 0000.0001)                 6.060000000000000E-01
(PID.TID 0000.0001)     ;
(PID.TID 0000.0001) gamma_blk = /* adiabatic lapse rate [?] */
(PID.TID 0000.0001)                 1.000000000000000E-02
(PID.TID 0000.0001)     ;
(PID.TID 0000.0001) saltsat = /* reduction of Qsat over salty water [-] */
(PID.TID 0000.0001)                 9.800000000000000E-01
(PID.TID 0000.0001)     ;
(PID.TID 0000.0001) noNegativeEvap = /* prevent negative Evaporation */
(PID.TID 0000.0001)                   F
(PID.TID 0000.0001)     ;
(PID.TID 0000.0001) sstExtrapol = /* extrapolation coeff from lev. 1 & 2 to surf [-] */
(PID.TID 0000.0001)                 0.000000000000000E+00
(PID.TID 0000.0001)     ;
(PID.TID 0000.0001) cDrag_1 = /* coef used in drag calculation [?] */
(PID.TID 0000.0001)                 2.700000000000000E-03
(PID.TID 0000.0001)     ;
(PID.TID 0000.0001) cDrag_2 = /* coef used in drag calculation [?] */
(PID.TID 0000.0001)                 1.420000000000000E-04
(PID.TID 0000.0001)     ;
(PID.TID 0000.0001) cDrag_3 = /* coef used in drag calculation [?] */
(PID.TID 0000.0001)                 7.640000000000000E-05
(PID.TID 0000.0001)     ;
(PID.TID 0000.0001) cStanton_1 = /* coef used in Stanton number calculation [?] */
(PID.TID 0000.0001)                 3.270000000000000E-02
(PID.TID 0000.0001)     ;
(PID.TID 0000.0001) cStanton_2 = /* coef used in Stanton number calculation [?] */
(PID.TID 0000.0001)                 1.800000000000000E-02
(PID.TID 0000.0001)     ;
(PID.TID 0000.0001) cDalton = /* coef used in Dalton number calculation [?] */
(PID.TID 0000.0001)                 3.460000000000000E-02
(PID.TID 0000.0001)     ;
(PID.TID 0000.0001) exf_scal_BulkCdn= /* Drag coefficient scaling factor [-] */
(PID.TID 0000.0001)                 1.000000000000000E+00
(PID.TID 0000.0001)     ;
(PID.TID 0000.0001) zolmin = /* minimum stability parameter [?] */
(PID.TID 0000.0001)                -1.000000000000000E+02
(PID.TID 0000.0001)     ;
(PID.TID 0000.0001) psim_fac = /* coef used in turbulent fluxes calculation [-] */
(PID.TID 0000.0001)                 5.000000000000000E+00
(PID.TID 0000.0001)     ;
(PID.TID 0000.0001) zref =  /* reference height [ m ] */
(PID.TID 0000.0001)                 1.000000000000000E+01
(PID.TID 0000.0001)     ;
(PID.TID 0000.0001) hu =  /* height of mean wind [ m ] */
(PID.TID 0000.0001)                 1.000000000000000E+01
(PID.TID 0000.0001)     ;
(PID.TID 0000.0001) ht =  /* height of mean temperature [ m ] */
(PID.TID 0000.0001)                 2.000000000000000E+00
(PID.TID 0000.0001)     ;
(PID.TID 0000.0001) hq =  /* height of mean spec.humidity [ m ] */
(PID.TID 0000.0001)                 2.000000000000000E+00
(PID.TID 0000.0001)     ;
(PID.TID 0000.0001) uMin = /* minimum wind speed [m/s] */
(PID.TID 0000.0001)                 5.000000000000000E-01
(PID.TID 0000.0001)     ;
(PID.TID 0000.0001) useStabilityFct_overIce= /* transfert Coeffs over sea-ice depend on stability */
(PID.TID 0000.0001)                   F
(PID.TID 0000.0001)     ;
(PID.TID 0000.0001) exf_iceCd = /* drag coefficient over sea-ice (fixed) [-] */
(PID.TID 0000.0001)                 1.630000000000000E-03
(PID.TID 0000.0001)     ;
(PID.TID 0000.0001) exf_iceCe = /* transfert coeff. over sea-ice, for Evap (fixed) [-] */
(PID.TID 0000.0001)                 1.630000000000000E-03
(PID.TID 0000.0001)     ;
(PID.TID 0000.0001) exf_iceCh = /* transfert coeff. over sea-ice, Sens.Heat.(fixed)[-] */
(PID.TID 0000.0001)                 1.630000000000000E-03
(PID.TID 0000.0001)     ;
(PID.TID 0000.0001) exf_albedo =  /* Sea-water albedo [-] */
(PID.TID 0000.0001)                 1.000000000000000E-01
(PID.TID 0000.0001)     ;
(PID.TID 0000.0001) useExfZenAlbedo = /* Sea-water albedo varies with zenith angle */
(PID.TID 0000.0001)                   F
(PID.TID 0000.0001)     ;
(PID.TID 0000.0001) select_ZenAlbedo = /* Sea-water albedo computation method */
(PID.TID 0000.0001)                       0
(PID.TID 0000.0001)     ;
(PID.TID 0000.0001) useExfZenIncoming = /* compute incoming solar radiation */
(PID.TID 0000.0001)                   F
(PID.TID 0000.0001)     ;
(PID.TID 0000.0001) ocean_emissivity = /* longwave ocean-surface emissivity [-] */
(PID.TID 0000.0001)                 9.700176366843034E-01
(PID.TID 0000.0001)     ;
(PID.TID 0000.0001) ice_emissivity = /* longwave seaice emissivity [-] */
(PID.TID 0000.0001)                 9.500000000000000E-01
(PID.TID 0000.0001)     ;
(PID.TID 0000.0001) snow_emissivity = /* longwave snow  emissivity [-] */
(PID.TID 0000.0001)                 9.500000000000000E-01
(PID.TID 0000.0001)     ;
(PID.TID 0000.0001) 
(PID.TID 0000.0001)  EXF main CPP flags:
(PID.TID 0000.0001) 
(PID.TID 0000.0001) // USE_EXF_INTERPOLATION:              defined
(PID.TID 0000.0001) // ALLOW_ATM_TEMP:                 NOT defined
(PID.TID 0000.0001) // ALLOW_ATM_WIND (useAtmWind):    NOT defined
(PID.TID 0000.0001) // ALLOW_DOWNWARD_RADIATION:       NOT defined
(PID.TID 0000.0001) // ALLOW_BULKFORMULAE:             NOT defined
(PID.TID 0000.0001) 
(PID.TID 0000.0001)    Zonal wind stress forcing starts at             1296000.
(PID.TID 0000.0001)    Zonal wind stress forcing period is             2592000.
(PID.TID 0000.0001)    Zonal wind stress forcing is read from file:
(PID.TID 0000.0001)    >>  trenberth_taux.bin  <<
(PID.TID 0000.0001)    interpolate "ustress" (method= 12 ):
(PID.TID 0000.0001)    lon0=   0.00000, nlon=    90, lon_inc= 4.0000000
(PID.TID 0000.0001)    lat0= -78.00000, nlat=    40, lat_inc= 4.0000000
(PID.TID 0000.0001) 
(PID.TID 0000.0001)    Meridional wind stress forcing starts at        1296000.
(PID.TID 0000.0001)    Meridional wind stress forcing period is        2592000.
(PID.TID 0000.0001)    Meridional wind stress forcing is read from file:
(PID.TID 0000.0001)    >>  trenberth_tauy.bin  <<
(PID.TID 0000.0001)    interpolate "vstress" (method= 22 ):
(PID.TID 0000.0001)    lon0=   2.00000, nlon=    90, lon_inc= 4.0000000
(PID.TID 0000.0001)    lat0= -80.00000, nlat=    40, lat_inc= 4.0000000
(PID.TID 0000.0001)     Interp. U & V comp. together: uvInterp_stress =    F
(PID.TID 0000.0001) 
(PID.TID 0000.0001)    Heat flux forcing starts at                    1296000.
(PID.TID 0000.0001)    Heat flux forcing period is                     2592000.
(PID.TID 0000.0001)    Heat flux forcing is read from file:
(PID.TID 0000.0001)    >>  ncep_qnet.bin  <<
(PID.TID 0000.0001)    interpolate "hflux" (method=  1 ):
(PID.TID 0000.0001)    lon0=   2.00000, nlon=    90, lon_inc= 4.0000000
(PID.TID 0000.0001)    lat0= -78.00000, nlat=    40, lat_inc= 4.0000000
(PID.TID 0000.0001) 
(PID.TID 0000.0001)    Salt flux forcing starts at                           0.
(PID.TID 0000.0001)    Salt flux forcing period is                     2592000.
(PID.TID 0000.0001)    Salt flux forcing is read from file:
(PID.TID 0000.0001)    >>    <<
(PID.TID 0000.0001)    interpolate "sflux" (method=  1 ):
(PID.TID 0000.0001)    lon0=   2.00000, nlon=    90, lon_inc= 4.0000000
(PID.TID 0000.0001)    lat0= -78.00000, nlat=    40, lat_inc= 4.0000000
(PID.TID 0000.0001) 
(PID.TID 0000.0001)    Net shortwave flux forcing starts at                0.
(PID.TID 0000.0001)    Net shortwave flux forcing period is                0.
(PID.TID 0000.0001)    Net shortwave flux forcing is read from file:
(PID.TID 0000.0001)    >>    <<
(PID.TID 0000.0001)    interpolate "swflux" (method=  1 ):
(PID.TID 0000.0001)    lon0=   2.00000, nlon=    90, lon_inc= 4.0000000
(PID.TID 0000.0001)    lat0= -78.00000, nlat=    40, lat_inc= 4.0000000
(PID.TID 0000.0001) 
(PID.TID 0000.0001) // EXF_READ_EVAP:                  NOT defined
(PID.TID 0000.0001) 
(PID.TID 0000.0001) // ALLOW_RUNOFF:                   NOT defined
(PID.TID 0000.0001) 
(PID.TID 0000.0001)    Atmospheric pressure forcing starts at                0.
(PID.TID 0000.0001)    Atmospheric pressure forcing period is                0.
(PID.TID 0000.0001)    Atmospheric pressureforcing is read from file:
(PID.TID 0000.0001)    >>    <<
(PID.TID 0000.0001)    interpolate "apressure" (method=  1 ):
(PID.TID 0000.0001)    lon0=   2.00000, nlon=    90, lon_inc= 4.0000000
(PID.TID 0000.0001)    lat0= -78.00000, nlat=    40, lat_inc= 4.0000000
(PID.TID 0000.0001) 
(PID.TID 0000.0001) // =======================================================
(PID.TID 0000.0001) // External forcing (EXF) climatology configuration :
(PID.TID 0000.0001) // =======================================================
(PID.TID 0000.0001) 
(PID.TID 0000.0001) // ALLOW_CLIMSST_RELAXATION:           defined
(PID.TID 0000.0001) // ALLOW_CLIMSSS_RELAXATION:           defined
(PID.TID 0000.0001) 
(PID.TID 0000.0001)    Climatological SST starts at             1296000.
(PID.TID 0000.0001)    Climatological SST period is             2592000.
(PID.TID 0000.0001)    Climatological SST is read from file:
(PID.TID 0000.0001)    >>  lev_sst.bin  <<
(PID.TID 0000.0001)    interpolate "climsst" (method=  2 ):
(PID.TID 0000.0001)    lon0=   2.00000, nlon=    90, lon_inc= 4.0000000
(PID.TID 0000.0001)    lat0= -78.00000, nlat=    40, lat_inc= 4.0000000
(PID.TID 0000.0001) 
(PID.TID 0000.0001)    Climatological SSS starts at             1296000.
(PID.TID 0000.0001)    Climatological SSS period is             2592000.
(PID.TID 0000.0001)    Climatological SSS is read from file:
(PID.TID 0000.0001)    >>  lev_sss.bin  <<
(PID.TID 0000.0001)    interpolate "climsss" (method=  2 ):
(PID.TID 0000.0001)    lon0=   2.00000, nlon=    90, lon_inc= 4.0000000
(PID.TID 0000.0001)    lat0= -78.00000, nlat=    40, lat_inc= 4.0000000
(PID.TID 0000.0001) 
(PID.TID 0000.0001) // =======================================================
(PID.TID 0000.0001) // External forcing (EXF) configuration  >>> END <<<
(PID.TID 0000.0001) // =======================================================
(PID.TID 0000.0001) 
(PID.TID 0000.0001) ------------------------------------------------------------
(PID.TID 0000.0001) DIAGNOSTICS_SET_LEVELS: done
(PID.TID 0000.0001)  Total Nb of available Diagnostics: ndiagt=   236
(PID.TID 0000.0001)  write list of available Diagnostics to file: available_diagnostics.log
(PID.TID 0000.0001) SETDIAG: Allocate  1 x  1 Levels for Diagnostic #   194 EXFtaux
(PID.TID 0000.0001) SETDIAG: Allocate  1 x  1 Levels for Diagnostic #   195 EXFtauy
(PID.TID 0000.0001) SETDIAG: Allocate  1 x  1 Levels for Diagnostic #   193 EXFqnet
(PID.TID 0000.0001) SETDIAG: Allocate  1 x  1 Levels for Diagnostic #   204 EXFempmr
(PID.TID 0000.0001) SETDIAG: Allocate 15 x  1 Levels for Diagnostic #    26 THETA
(PID.TID 0000.0001) SETDIAG: Allocate 15 x  1 Levels for Diagnostic #    27 SALT
(PID.TID 0000.0001) SETDIAG: Allocate 15 x  1 Levels for Diagnostic #    30 UVEL
(PID.TID 0000.0001) SETDIAG: Allocate 15 x  1 Levels for Diagnostic #    31 VVEL
(PID.TID 0000.0001) SETDIAG: Allocate 15 x  1 Levels for Diagnostic #   236 FrzForcT
(PID.TID 0000.0001)   space allocated for all diagnostics:      79 levels
(PID.TID 0000.0001)   set mate pointer for diag #    30  UVEL     , Parms: UUR     MR , mate:    31
(PID.TID 0000.0001)   set mate pointer for diag #    31  VVEL     , Parms: VVR     MR , mate:    30
(PID.TID 0000.0001) DIAGNOSTICS_SET_POINTERS: Set levels for Outp.Stream: diagsEXF
(PID.TID 0000.0001)  Levels:       1.
(PID.TID 0000.0001) DIAGNOSTICS_SET_POINTERS: Set levels for Outp.Stream: FrzForcT
(PID.TID 0000.0001)  Levels:       1.   2.   3.   4.   5.   6.   7.   8.   9.  10.  11.  12.  13.  14.  15.
(PID.TID 0000.0001) DIAGNOSTICS_SET_POINTERS: done
(PID.TID 0000.0001) ------------------------------------------------------------
(PID.TID 0000.0001) DIAGSTATS_SET_REGIONS: define no region
(PID.TID 0000.0001) ------------------------------------------------------------
(PID.TID 0000.0001)   space allocated for all stats-diags:       0 levels
(PID.TID 0000.0001) DIAGSTATS_SET_POINTERS: done
(PID.TID 0000.0001) ------------------------------------------------------------
(PID.TID 0000.0001) %MON fCori_max                    =   1.4226580169407E-04
(PID.TID 0000.0001) %MON fCori_min                    =  -1.4226580169407E-04
(PID.TID 0000.0001) %MON fCori_mean                   =   1.5961865317148E-21
(PID.TID 0000.0001) %MON fCori_sd                     =   9.6335367303779E-05
(PID.TID 0000.0001) %MON fCoriG_max                   =   1.4112379284621E-04
(PID.TID 0000.0001) %MON fCoriG_min                   =  -1.4323448157692E-04
(PID.TID 0000.0001) %MON fCoriG_mean                  =  -3.5808620394229E-06
(PID.TID 0000.0001) %MON fCoriG_sd                    =   9.6285194120965E-05
(PID.TID 0000.0001) %MON fCoriCos_max                 =   1.4535550371427E-04
(PID.TID 0000.0001) %MON fCoriCos_min                 =   3.0239529651320E-05
(PID.TID 0000.0001) %MON fCoriCos_mean                =   1.0260497651149E-04
(PID.TID 0000.0001) %MON fCoriCos_sd                  =   3.6683828681187E-05
(PID.TID 0000.0001) INI_CG2D: CG2D normalisation factor =  6.5682677425711703E-05
(PID.TID 0000.0001) 
(PID.TID 0000.0001) // =======================================================
(PID.TID 0000.0001) // Model configuration
(PID.TID 0000.0001) // =======================================================
(PID.TID 0000.0001) //
(PID.TID 0000.0001) // "Physical" paramters ( PARM01 in namelist )
(PID.TID 0000.0001) //
(PID.TID 0000.0001) buoyancyRelation = /* Type of relation to get Buoyancy */
(PID.TID 0000.0001)               'OCEANIC'
(PID.TID 0000.0001)     ;
(PID.TID 0000.0001) fluidIsAir   =  /* fluid major constituent is Air */
(PID.TID 0000.0001)                   F
(PID.TID 0000.0001)     ;
(PID.TID 0000.0001) fluidIsWater =  /* fluid major constituent is Water */
(PID.TID 0000.0001)                   T
(PID.TID 0000.0001)     ;
(PID.TID 0000.0001) usingPCoords =  /* use p (or p*) vertical coordinate */
(PID.TID 0000.0001)                   F
(PID.TID 0000.0001)     ;
(PID.TID 0000.0001) usingZCoords =  /* use z (or z*) vertical coordinate */
(PID.TID 0000.0001)                   T
(PID.TID 0000.0001)     ;
(PID.TID 0000.0001) tRef =   /* Reference temperature profile ( oC or K ) */
(PID.TID 0000.0001)    15 @  2.000000000000000E+01              /* K =  1: 15 */
(PID.TID 0000.0001)     ;
(PID.TID 0000.0001) sRef =   /* Reference salinity profile ( psu ) */
(PID.TID 0000.0001)    15 @  3.500000000000000E+01              /* K =  1: 15 */
(PID.TID 0000.0001)     ;
(PID.TID 0000.0001) useStrainTensionVisc= /* Use StrainTension Form of Viscous Operator */
(PID.TID 0000.0001)                   F
(PID.TID 0000.0001)     ;
(PID.TID 0000.0001) useVariableVisc = /* Use variable horizontal viscosity */
(PID.TID 0000.0001)                   F
(PID.TID 0000.0001)     ;
(PID.TID 0000.0001) useHarmonicVisc = /* Use harmonic horizontal viscosity */
(PID.TID 0000.0001)                   T
(PID.TID 0000.0001)     ;
(PID.TID 0000.0001) useBiharmonicVisc= /* Use biharmonic horiz.  viscosity */
(PID.TID 0000.0001)                   F
(PID.TID 0000.0001)     ;
(PID.TID 0000.0001) useSmag3D = /* Use isotropic 3-D Smagorinsky viscosity */
(PID.TID 0000.0001)                   F
(PID.TID 0000.0001)     ;
(PID.TID 0000.0001) viscAh  =   /* Lateral harmonic viscosity ( m^2/s ) */
(PID.TID 0000.0001)                 5.000000000000000E+05
(PID.TID 0000.0001)     ;
(PID.TID 0000.0001) viscA4  =   /* Lateral biharmonic viscosity ( m^4/s ) */
(PID.TID 0000.0001)                 0.000000000000000E+00
(PID.TID 0000.0001)     ;
(PID.TID 0000.0001) no_slip_sides =  /* Viscous BCs: No-slip sides */
(PID.TID 0000.0001)                   T
(PID.TID 0000.0001)     ;
(PID.TID 0000.0001) sideDragFactor = /* side-drag scaling factor (non-dim) */
(PID.TID 0000.0001)                 2.000000000000000E+00
(PID.TID 0000.0001)     ;
(PID.TID 0000.0001) viscArNr = /* vertical profile of vertical viscosity ( m^2/s )*/
(PID.TID 0000.0001)    15 @  1.000000000000000E-03              /* K =  1: 15 */
(PID.TID 0000.0001)     ;
(PID.TID 0000.0001) no_slip_bottom =  /* Viscous BCs: No-slip bottom */
(PID.TID 0000.0001)                   T
(PID.TID 0000.0001)     ;
(PID.TID 0000.0001) bottomVisc_pCell = /* Partial-cell in bottom Visc. BC */
(PID.TID 0000.0001)                   F
(PID.TID 0000.0001)     ;
(PID.TID 0000.0001) bottomDragLinear = /* linear bottom-drag coefficient ( m/s ) */
(PID.TID 0000.0001)                 0.000000000000000E+00
(PID.TID 0000.0001)     ;
(PID.TID 0000.0001) bottomDragQuadratic = /* quadratic bottom-drag coefficient (-) */
(PID.TID 0000.0001)                 0.000000000000000E+00
(PID.TID 0000.0001)     ;
(PID.TID 0000.0001) selectBotDragQuadr = /* select quadratic bottom drag options */
(PID.TID 0000.0001)                      -1
(PID.TID 0000.0001)     ;
(PID.TID 0000.0001) diffKhT =   /* Laplacian diffusion of heat laterally ( m^2/s ) */
(PID.TID 0000.0001)                 0.000000000000000E+00
(PID.TID 0000.0001)     ;
(PID.TID 0000.0001) diffK4T =   /* Biharmonic diffusion of heat laterally ( m^4/s ) */
(PID.TID 0000.0001)                 0.000000000000000E+00
(PID.TID 0000.0001)     ;
(PID.TID 0000.0001) diffKhS =   /* Laplacian diffusion of salt laterally ( m^2/s ) */
(PID.TID 0000.0001)                 0.000000000000000E+00
(PID.TID 0000.0001)     ;
(PID.TID 0000.0001) diffK4S =   /* Biharmonic diffusion of salt laterally ( m^4/s ) */
(PID.TID 0000.0001)                 0.000000000000000E+00
(PID.TID 0000.0001)     ;
(PID.TID 0000.0001) diffKrNrT = /* vertical profile of vertical diffusion of Temp ( m^2/s )*/
(PID.TID 0000.0001)    15 @  3.000000000000000E-05              /* K =  1: 15 */
(PID.TID 0000.0001)     ;
(PID.TID 0000.0001) diffKrNrS = /* vertical profile of vertical diffusion of Salt ( m^2/s )*/
(PID.TID 0000.0001)    15 @  3.000000000000000E-05              /* K =  1: 15 */
(PID.TID 0000.0001)     ;
(PID.TID 0000.0001) diffKrBL79surf = /* Surface diffusion for Bryan and Lewis 79 ( m^2/s ) */
(PID.TID 0000.0001)                 0.000000000000000E+00
(PID.TID 0000.0001)     ;
(PID.TID 0000.0001) diffKrBL79deep = /* Deep diffusion for Bryan and Lewis 1979 ( m^2/s ) */
(PID.TID 0000.0001)                 0.000000000000000E+00
(PID.TID 0000.0001)     ;
(PID.TID 0000.0001) diffKrBL79scl = /* Depth scale for Bryan and Lewis 1979 ( m ) */
(PID.TID 0000.0001)                 2.000000000000000E+02
(PID.TID 0000.0001)     ;
(PID.TID 0000.0001) diffKrBL79Ho = /* Turning depth for Bryan and Lewis 1979 ( m ) */
(PID.TID 0000.0001)                -2.000000000000000E+03
(PID.TID 0000.0001)     ;
(PID.TID 0000.0001) ivdc_kappa = /* Implicit Vertical Diffusivity for Convection ( m^2/s) */
(PID.TID 0000.0001)                 1.000000000000000E+02
(PID.TID 0000.0001)     ;
(PID.TID 0000.0001) hMixCriteria=  /* Criteria for mixed-layer diagnostic */
(PID.TID 0000.0001)                -8.000000000000000E-01
(PID.TID 0000.0001)     ;
(PID.TID 0000.0001) dRhoSmall =  /* Parameter for mixed-layer diagnostic */
(PID.TID 0000.0001)                 1.000000000000000E-06
(PID.TID 0000.0001)     ;
(PID.TID 0000.0001) hMixSmooth=  /* Smoothing parameter for mixed-layer diagnostic */
(PID.TID 0000.0001)                 0.000000000000000E+00
(PID.TID 0000.0001)     ;
(PID.TID 0000.0001) eosType =  /* Type of Equation of State */
(PID.TID 0000.0001)               'POLY3 '
(PID.TID 0000.0001)     ;
(PID.TID 0000.0001) Polynomial EQS parameters ( from POLY3.COEFFS ):
(PID.TID 0000.0001)   1  13.497  32.600  24.548  -0.202   0.773  -0.005  -0.002   0.000   0.000   0.000   0.000   0.000
(PID.TID 0000.0001)   2  13.488  32.600  24.819  -0.204   0.773  -0.005  -0.002   0.000   0.000   0.000   0.000   0.000
(PID.TID 0000.0001)   3  13.476  32.600  25.201  -0.205   0.772  -0.005  -0.002   0.000   0.000   0.000   0.000   0.000
(PID.TID 0000.0001)   4   8.469  35.150  28.642  -0.163   0.784  -0.005  -0.002  -0.000   0.000   0.000   0.000   0.000
(PID.TID 0000.0001)   5   8.451  35.150  29.393  -0.167   0.782  -0.005  -0.002  -0.000   0.000   0.000   0.000   0.000
(PID.TID 0000.0001)   6   5.940  34.900  30.563  -0.144   0.786  -0.005  -0.002  -0.001   0.000   0.000   0.000   0.000
(PID.TID 0000.0001)   7   4.425  34.900  31.985  -0.134   0.788  -0.005  -0.003  -0.000   0.000   0.000   0.000   0.000
(PID.TID 0000.0001)   8   2.911  34.750  33.505  -0.125   0.789  -0.006  -0.003  -0.000   0.000   0.000   0.000   0.000
(PID.TID 0000.0001)   9   1.893  34.800  35.341  -0.123   0.789  -0.006  -0.003   0.000   0.000   0.000   0.000   0.000
(PID.TID 0000.0001)  10   1.367  34.800  37.299  -0.129   0.787  -0.006  -0.003   0.000   0.000   0.000   0.000   0.000
(PID.TID 0000.0001)  11   1.327  34.800  39.405  -0.141   0.783  -0.005  -0.003   0.000   0.000   0.000   0.000   0.000
(PID.TID 0000.0001)  12   0.791  34.800  41.788  -0.149   0.780  -0.005  -0.003   0.000   0.000   0.000   0.000   0.000
(PID.TID 0000.0001)  13   0.736  34.750  44.259  -0.164   0.776  -0.005  -0.002   0.000   0.000   0.000   0.000   0.000
(PID.TID 0000.0001)  14   0.186  34.750  47.044  -0.175   0.773  -0.005  -0.002   0.000   0.000   0.000   0.000   0.000
(PID.TID 0000.0001)  15   0.595  34.750  49.835  -0.196   0.767  -0.004  -0.002   0.000   0.000   0.000   0.000   0.000
(PID.TID 0000.0001)     ;
(PID.TID 0000.0001) selectP_inEOS_Zc = /* select pressure to use in EOS (0,1,2,3) */
(PID.TID 0000.0001)                       0
(PID.TID 0000.0001)     0= -g*rhoConst*z ; 1= pRef (from tRef,sRef); 2= Hyd P ; 3= Hyd+NH P
(PID.TID 0000.0001)     ;
(PID.TID 0000.0001) HeatCapacity_Cp =  /* Specific heat capacity ( J/kg/K ) */
(PID.TID 0000.0001)                 3.994000000000000E+03
(PID.TID 0000.0001)     ;
(PID.TID 0000.0001) celsius2K = /* 0 degree Celsius converted to Kelvin ( K ) */
(PID.TID 0000.0001)                 2.731500000000000E+02
(PID.TID 0000.0001)     ;
(PID.TID 0000.0001) rhoConst  = /* Reference density (Boussinesq)  ( kg/m^3 ) */
(PID.TID 0000.0001)                 1.035000000000000E+03
(PID.TID 0000.0001)     ;
(PID.TID 0000.0001) rhoFacC = /* normalized Reference density @ cell-Center (-) */
(PID.TID 0000.0001)    15 @  1.000000000000000E+00              /* K =  1: 15 */
(PID.TID 0000.0001)     ;
(PID.TID 0000.0001) rhoFacF = /* normalized Reference density @ W-Interface (-) */
(PID.TID 0000.0001)    16 @  1.000000000000000E+00              /* K =  1: 16 */
(PID.TID 0000.0001)     ;
(PID.TID 0000.0001) rhoConstFresh = /* Fresh-water reference density ( kg/m^3 ) */
(PID.TID 0000.0001)                 1.035000000000000E+03
(PID.TID 0000.0001)     ;
(PID.TID 0000.0001) gravity =   /* Gravitational acceleration ( m/s^2 ) */
(PID.TID 0000.0001)                 9.810000000000000E+00
(PID.TID 0000.0001)     ;
(PID.TID 0000.0001) gBaro =   /* Barotropic gravity ( m/s^2 ) */
(PID.TID 0000.0001)                 9.810000000000000E+00
(PID.TID 0000.0001)     ;
(PID.TID 0000.0001) gravFacC = /* gravity factor (vs surf.) @ cell-Center (-) */
(PID.TID 0000.0001)    15 @  1.000000000000000E+00              /* K =  1: 15 */
(PID.TID 0000.0001)     ;
(PID.TID 0000.0001) gravFacF = /* gravity factor (vs surf.) @ W-Interface (-) */
(PID.TID 0000.0001)    16 @  1.000000000000000E+00              /* K =  1: 16 */
(PID.TID 0000.0001)     ;
(PID.TID 0000.0001) rotationPeriod =   /* Rotation Period ( s ) */
(PID.TID 0000.0001)                 8.640000000000000E+04
(PID.TID 0000.0001)     ;
(PID.TID 0000.0001) omega =   /* Angular velocity ( rad/s ) */
(PID.TID 0000.0001)                 7.272205216643040E-05
(PID.TID 0000.0001)     ;
(PID.TID 0000.0001) f0 =   /* Reference coriolis parameter ( 1/s ) */
(PID.TID 0000.0001)                 1.000000000000000E-04
(PID.TID 0000.0001)     ;
(PID.TID 0000.0001) beta =   /* Beta ( 1/(m.s) ) */
(PID.TID 0000.0001)                 9.999999999999999E-12
(PID.TID 0000.0001)     ;
(PID.TID 0000.0001) fPrime =   /* Second coriolis parameter ( 1/s ) */
(PID.TID 0000.0001)                 0.000000000000000E+00
(PID.TID 0000.0001)     ;
(PID.TID 0000.0001) rigidLid =   /* Rigid lid on/off flag */
(PID.TID 0000.0001)                   F
(PID.TID 0000.0001)     ;
(PID.TID 0000.0001) implicitFreeSurface =   /* Implicit free surface on/off flag */
(PID.TID 0000.0001)                   T
(PID.TID 0000.0001)     ;
(PID.TID 0000.0001) freeSurfFac =   /* Implicit free surface factor */
(PID.TID 0000.0001)                 1.000000000000000E+00
(PID.TID 0000.0001)     ;
(PID.TID 0000.0001) implicSurfPress =  /* Surface Pressure implicit factor (0-1)*/
(PID.TID 0000.0001)                 1.000000000000000E+00
(PID.TID 0000.0001)     ;
(PID.TID 0000.0001) implicDiv2Dflow =  /* Barot. Flow Div. implicit factor (0-1)*/
(PID.TID 0000.0001)                 1.000000000000000E+00
(PID.TID 0000.0001)     ;
(PID.TID 0000.0001) uniformLin_PhiSurf = /* use uniform Bo_surf on/off flag*/
(PID.TID 0000.0001)                   T
(PID.TID 0000.0001)     ;
(PID.TID 0000.0001) uniformFreeSurfLev = /* free-surface level-index is uniform */
(PID.TID 0000.0001)                   T
(PID.TID 0000.0001)     ;
(PID.TID 0000.0001) hFacMin =   /* minimum partial cell factor (hFac) */
(PID.TID 0000.0001)                 5.000000000000000E-02
(PID.TID 0000.0001)     ;
(PID.TID 0000.0001) hFacMinDr = /* minimum partial cell thickness ( m) */
(PID.TID 0000.0001)                 5.000000000000000E+01
(PID.TID 0000.0001)     ;
(PID.TID 0000.0001) exactConserv =  /* Exact Volume Conservation on/off flag*/
(PID.TID 0000.0001)                   F
(PID.TID 0000.0001)     ;
(PID.TID 0000.0001) linFSConserveTr = /* Tracer correction for Lin Free Surface on/off flag*/
(PID.TID 0000.0001)                   F
(PID.TID 0000.0001)     ;
(PID.TID 0000.0001) nonlinFreeSurf = /* Non-linear Free Surf. options (-1,0,1,2,3)*/
(PID.TID 0000.0001)                       0
(PID.TID 0000.0001)      -1,0= Off ; 1,2,3= On, 2=+rescale gU,gV, 3=+update cg2d solv.
(PID.TID 0000.0001)     ;
(PID.TID 0000.0001) hFacInf =   /* lower threshold for hFac (nonlinFreeSurf only)*/
(PID.TID 0000.0001)                 2.000000000000000E-01
(PID.TID 0000.0001)     ;
(PID.TID 0000.0001) hFacSup =   /* upper threshold for hFac (nonlinFreeSurf only)*/
(PID.TID 0000.0001)                 2.000000000000000E+00
(PID.TID 0000.0001)     ;
(PID.TID 0000.0001) select_rStar = /* r* Vertical coord. options (=0 r coord.; >0 uses r*)*/
(PID.TID 0000.0001)                       0
(PID.TID 0000.0001)     ;
(PID.TID 0000.0001) useRealFreshWaterFlux = /* Real Fresh Water Flux on/off flag*/
(PID.TID 0000.0001)                   T
(PID.TID 0000.0001)     ;
(PID.TID 0000.0001) temp_EvPrRn = /* Temp. of Evap/Prec/R (UNSET=use local T)(oC)*/
(PID.TID 0000.0001)                 1.234567000000000E+05
(PID.TID 0000.0001)     ;
(PID.TID 0000.0001) salt_EvPrRn = /* Salin. of Evap/Prec/R (UNSET=use local S)(psu)*/
(PID.TID 0000.0001)                 0.000000000000000E+00
(PID.TID 0000.0001)     ;
(PID.TID 0000.0001) selectAddFluid = /* option for mass source/sink of fluid (=0: off) */
(PID.TID 0000.0001)                       0
(PID.TID 0000.0001)     ;
(PID.TID 0000.0001) temp_addMass = /* Temp. of addMass array (UNSET=use local T)(oC)*/
(PID.TID 0000.0001)                 1.234567000000000E+05
(PID.TID 0000.0001)     ;
(PID.TID 0000.0001) salt_addMass = /* Salin. of addMass array (UNSET=use local S)(psu)*/
(PID.TID 0000.0001)                 0.000000000000000E+00
(PID.TID 0000.0001)     ;
(PID.TID 0000.0001) convertFW2Salt = /* convert F.W. Flux to Salt Flux (-1=use local S)(psu)*/
(PID.TID 0000.0001)                -1.000000000000000E+00
(PID.TID 0000.0001)     ;
(PID.TID 0000.0001) use3Dsolver = /* use 3-D pressure solver on/off flag */
(PID.TID 0000.0001)                   F
(PID.TID 0000.0001)     ;
(PID.TID 0000.0001) nonHydrostatic =  /* Non-Hydrostatic on/off flag */
(PID.TID 0000.0001)                   F
(PID.TID 0000.0001)     ;
(PID.TID 0000.0001) nh_Am2 = /* Non-Hydrostatic terms scaling factor */
(PID.TID 0000.0001)                 1.000000000000000E+00
(PID.TID 0000.0001)     ;
(PID.TID 0000.0001) implicitNHPress = /* Non-Hyd Pressure implicit factor (0-1)*/
(PID.TID 0000.0001)                 1.000000000000000E+00
(PID.TID 0000.0001)     ;
(PID.TID 0000.0001) selectNHfreeSurf = /* Non-Hyd (free-)Surface option */
(PID.TID 0000.0001)                       0
(PID.TID 0000.0001)     ;
(PID.TID 0000.0001) quasiHydrostatic = /* Quasi-Hydrostatic on/off flag */
(PID.TID 0000.0001)                   F
(PID.TID 0000.0001)     ;
(PID.TID 0000.0001) calc_wVelocity = /* vertical velocity calculation on/off flag */
(PID.TID 0000.0001)                   T
(PID.TID 0000.0001)     ;
(PID.TID 0000.0001) momStepping =  /* Momentum equation on/off flag */
(PID.TID 0000.0001)                   T
(PID.TID 0000.0001)     ;
(PID.TID 0000.0001) vectorInvariantMomentum= /* Vector-Invariant Momentum on/off */
(PID.TID 0000.0001)                   F
(PID.TID 0000.0001)     ;
(PID.TID 0000.0001) momAdvection =  /* Momentum advection on/off flag */
(PID.TID 0000.0001)                   T
(PID.TID 0000.0001)     ;
(PID.TID 0000.0001) momViscosity =  /* Momentum viscosity on/off flag */
(PID.TID 0000.0001)                   T
(PID.TID 0000.0001)     ;
(PID.TID 0000.0001) momImplVertAdv= /* Momentum implicit vert. advection on/off*/
(PID.TID 0000.0001)                   F
(PID.TID 0000.0001)     ;
(PID.TID 0000.0001) implicitViscosity = /* Implicit viscosity on/off flag */
(PID.TID 0000.0001)                   F
(PID.TID 0000.0001)     ;
(PID.TID 0000.0001) implBottomFriction= /* Implicit bottom friction on/off flag */
(PID.TID 0000.0001)                   F
(PID.TID 0000.0001)     ;
(PID.TID 0000.0001) metricTerms =  /* metric-Terms on/off flag */
(PID.TID 0000.0001)                   T
(PID.TID 0000.0001)     ;
(PID.TID 0000.0001) useNHMTerms = /* Non-Hydrostatic Metric-Terms on/off */
(PID.TID 0000.0001)                   T
(PID.TID 0000.0001)     ;
(PID.TID 0000.0001) selectCoriMap = /* Coriolis Map options (0,1,2,3)*/
(PID.TID 0000.0001)                       2
(PID.TID 0000.0001)     0= f-Plane ; 1= Beta-Plane ; 2= Spherical ; 3= read from file
(PID.TID 0000.0001)     ;
(PID.TID 0000.0001) use3dCoriolis = /* 3-D Coriolis on/off flag */
(PID.TID 0000.0001)                   F
(PID.TID 0000.0001)     ;
(PID.TID 0000.0001) useCoriolis =  /* Coriolis on/off flag */
(PID.TID 0000.0001)                   T
(PID.TID 0000.0001)     ;
(PID.TID 0000.0001) useCDscheme =  /* CD scheme on/off flag */
(PID.TID 0000.0001)                   T
(PID.TID 0000.0001)     ;
(PID.TID 0000.0001) useEnergyConservingCoriolis= /* Flx-Form Coriolis scheme flag */
(PID.TID 0000.0001)                   F
(PID.TID 0000.0001)     ;
(PID.TID 0000.0001) useJamartWetPoints= /* Coriolis WetPoints method flag */
(PID.TID 0000.0001)                   F
(PID.TID 0000.0001)     ;
(PID.TID 0000.0001) useJamartMomAdv= /* V.I Non-linear terms Jamart flag */
(PID.TID 0000.0001)                   F
(PID.TID 0000.0001)     ;
(PID.TID 0000.0001) useAbsVorticity= /* V.I Works with f+zeta in Coriolis */
(PID.TID 0000.0001)                   F
(PID.TID 0000.0001)     ;
(PID.TID 0000.0001) selectVortScheme= /* V.I Scheme selector for Vorticity-Term */
(PID.TID 0000.0001)               123456789
(PID.TID 0000.0001)    = 0 : enstrophy (Shallow-Water Eq.) conserving scheme by Sadourny, JAS 75
(PID.TID 0000.0001)    = 1 : same as 0 with modified hFac
(PID.TID 0000.0001)    = 2 : energy conserving scheme (used by Sadourny in JAS 75 paper)
(PID.TID 0000.0001)    = 3 : energy (general) and enstrophy (2D, nonDiv.) conserving scheme
(PID.TID 0000.0001)          from Sadourny (Burridge & Haseler, ECMWF Rep.4, 1977)
(PID.TID 0000.0001)     ;
(PID.TID 0000.0001) upwindVorticity= /* V.I Upwind bias vorticity flag */
(PID.TID 0000.0001)                   F
(PID.TID 0000.0001)     ;
(PID.TID 0000.0001) highOrderVorticity= /* V.I High order vort. advect. flag */
(PID.TID 0000.0001)                   F
(PID.TID 0000.0001)     ;
(PID.TID 0000.0001) upwindShear= /* V.I Upwind vertical Shear advection flag */
(PID.TID 0000.0001)                   F
(PID.TID 0000.0001)     ;
(PID.TID 0000.0001) selectKEscheme= /* V.I Kinetic Energy scheme selector */
(PID.TID 0000.0001)                       0
(PID.TID 0000.0001)     ;
(PID.TID 0000.0001) momForcing =  /* Momentum forcing on/off flag */
(PID.TID 0000.0001)                   T
(PID.TID 0000.0001)     ;
(PID.TID 0000.0001) momPressureForcing =  /* Momentum pressure term on/off flag */
(PID.TID 0000.0001)                   T
(PID.TID 0000.0001)     ;
(PID.TID 0000.0001) implicitIntGravWave= /* Implicit Internal Gravity Wave flag */
(PID.TID 0000.0001)                   F
(PID.TID 0000.0001)     ;
(PID.TID 0000.0001) staggerTimeStep =    /* Stagger time stepping on/off flag */
(PID.TID 0000.0001)                   F
(PID.TID 0000.0001)     ;
(PID.TID 0000.0001) doResetHFactors = /* reset thickness factors @ each time-step */
(PID.TID 0000.0001)                   F
(PID.TID 0000.0001)     ;
(PID.TID 0000.0001) multiDimAdvection =  /* enable/disable Multi-Dim Advection */
(PID.TID 0000.0001)                   T
(PID.TID 0000.0001)     ;
(PID.TID 0000.0001) useMultiDimAdvec =   /* Multi-Dim Advection is/is-not used */
(PID.TID 0000.0001)                   F
(PID.TID 0000.0001)     ;
(PID.TID 0000.0001) implicitDiffusion = /* Implicit Diffusion on/off flag */
(PID.TID 0000.0001)                   T
(PID.TID 0000.0001)     ;
(PID.TID 0000.0001) tempStepping =  /* Temperature equation on/off flag */
(PID.TID 0000.0001)                   T
(PID.TID 0000.0001)     ;
(PID.TID 0000.0001) tempAdvection = /* Temperature advection on/off flag */
(PID.TID 0000.0001)                   T
(PID.TID 0000.0001)     ;
(PID.TID 0000.0001) tempImplVertAdv = /* Temp. implicit vert. advection on/off */
(PID.TID 0000.0001)                   F
(PID.TID 0000.0001)     ;
(PID.TID 0000.0001) tempForcing  =  /* Temperature forcing on/off flag */
(PID.TID 0000.0001)                   T
(PID.TID 0000.0001)     ;
(PID.TID 0000.0001) doThetaClimRelax = /* apply SST relaxation on/off flag */
(PID.TID 0000.0001)                   T
(PID.TID 0000.0001)     ;
(PID.TID 0000.0001) tempIsActiveTr = /* Temp. is a dynamically Active Tracer */
(PID.TID 0000.0001)                   T
(PID.TID 0000.0001)     ;
(PID.TID 0000.0001) saltStepping =  /* Salinity equation on/off flag */
(PID.TID 0000.0001)                   T
(PID.TID 0000.0001)     ;
(PID.TID 0000.0001) saltAdvection = /* Salinity advection on/off flag */
(PID.TID 0000.0001)                   T
(PID.TID 0000.0001)     ;
(PID.TID 0000.0001) saltImplVertAdv = /* Sali. implicit vert. advection on/off */
(PID.TID 0000.0001)                   F
(PID.TID 0000.0001)     ;
(PID.TID 0000.0001) saltForcing  =  /* Salinity forcing on/off flag */
(PID.TID 0000.0001)                   T
(PID.TID 0000.0001)     ;
(PID.TID 0000.0001) doSaltClimRelax = /* apply SSS relaxation on/off flag */
(PID.TID 0000.0001)                   T
(PID.TID 0000.0001)     ;
(PID.TID 0000.0001) saltIsActiveTr = /* Salt  is a dynamically Active Tracer */
(PID.TID 0000.0001)                   T
(PID.TID 0000.0001)     ;
(PID.TID 0000.0001)  readBinaryPrec = /* Precision used for reading binary files */
(PID.TID 0000.0001)                      32
(PID.TID 0000.0001)     ;
(PID.TID 0000.0001) writeBinaryPrec = /* Precision used for writing binary files */
(PID.TID 0000.0001)                      32
(PID.TID 0000.0001)     ;
(PID.TID 0000.0001)  globalFiles = /* write "global" (=not per tile) files */
(PID.TID 0000.0001)                   F
(PID.TID 0000.0001)     ;
(PID.TID 0000.0001)  useSingleCpuIO = /* only master MPI process does I/O */
(PID.TID 0000.0001)                   T
(PID.TID 0000.0001)     ;
(PID.TID 0000.0001)  useSingleCpuInput = /* only master process reads input */
(PID.TID 0000.0001)                   T
(PID.TID 0000.0001)     ;
(PID.TID 0000.0001) /* debLev[*]  : level of debug & auxiliary message printing */
(PID.TID 0000.0001) debLevZero =  0 ; /* level of disabled aux. msg printing */
(PID.TID 0000.0001)    debLevA =  1 ; /* level of minimum  aux. msg printing */
(PID.TID 0000.0001)    debLevB =  2 ; /* level of low aux. print (report read-file opening)*/
(PID.TID 0000.0001)    debLevC =  3 ; /* level of moderate debug prt (most pkgs debug msg) */
(PID.TID 0000.0001)    debLevD =  4 ; /* level of enhanced debug prt (add DEBUG_STATS prt) */
(PID.TID 0000.0001)    debLevE =  5 ; /* level of extensive debug printing */
(PID.TID 0000.0001) debugLevel =  /* select debug printing level */
(PID.TID 0000.0001)                       2
(PID.TID 0000.0001)     ;
(PID.TID 0000.0001) //
(PID.TID 0000.0001) // Elliptic solver(s) paramters ( PARM02 in namelist )
(PID.TID 0000.0001) //
(PID.TID 0000.0001) cg2dMaxIters =   /* Upper limit on 2d con. grad iterations  */
(PID.TID 0000.0001)                     500
(PID.TID 0000.0001)     ;
(PID.TID 0000.0001) cg2dChkResFreq =   /* 2d con. grad convergence test frequency */
(PID.TID 0000.0001)                       1
(PID.TID 0000.0001)     ;
(PID.TID 0000.0001) cg2dUseMinResSol= /* use cg2d last-iter(=0) / min-resid.(=1) solution */
(PID.TID 0000.0001)                       0
(PID.TID 0000.0001)     ;
(PID.TID 0000.0001) cg2dTargetResidual =   /* 2d con. grad target residual  */
(PID.TID 0000.0001)                 1.000000000000000E-13
(PID.TID 0000.0001)     ;
(PID.TID 0000.0001) cg2dTargetResWunit =   /* CG2d target residual [W units] */
(PID.TID 0000.0001)                -1.000000000000000E+00
(PID.TID 0000.0001)     ;
(PID.TID 0000.0001) cg2dPreCondFreq =   /* Freq. for updating cg2d preconditioner */
(PID.TID 0000.0001)                       1
(PID.TID 0000.0001)     ;
(PID.TID 0000.0001) useSRCGSolver =  /* use single reduction CG solver(s) */
(PID.TID 0000.0001)                   T
(PID.TID 0000.0001)     ;
(PID.TID 0000.0001) printResidualFreq = /* Freq. for printing CG residual */
(PID.TID 0000.0001)                       0
(PID.TID 0000.0001)     ;
(PID.TID 0000.0001) //
(PID.TID 0000.0001) // Time stepping paramters ( PARM03 in namelist )
(PID.TID 0000.0001) //
(PID.TID 0000.0001) deltaTMom =   /* Momentum equation timestep ( s ) */
(PID.TID 0000.0001)                 1.200000000000000E+03
(PID.TID 0000.0001)     ;
(PID.TID 0000.0001) deltaTFreeSurf = /* FreeSurface equation timestep ( s ) */
(PID.TID 0000.0001)                 1.200000000000000E+03
(PID.TID 0000.0001)     ;
(PID.TID 0000.0001) dTtracerLev =  /* Tracer equation timestep ( s ) */
(PID.TID 0000.0001)    15 @  4.320000000000000E+04              /* K =  1: 15 */
(PID.TID 0000.0001)     ;
(PID.TID 0000.0001) deltaTClock  =   /* Model clock timestep ( s ) */
(PID.TID 0000.0001)                 4.320000000000000E+04
(PID.TID 0000.0001)     ;
(PID.TID 0000.0001) cAdjFreq =   /* Convective adjustment interval ( s ) */
(PID.TID 0000.0001)                 0.000000000000000E+00
(PID.TID 0000.0001)     ;
(PID.TID 0000.0001) momForcingOutAB = /* =1: take Momentum Forcing out of Adams-Bash. stepping */
(PID.TID 0000.0001)                       0
(PID.TID 0000.0001)     ;
(PID.TID 0000.0001) tracForcingOutAB = /* =1: take T,S,pTr Forcing out of Adams-Bash. stepping */
(PID.TID 0000.0001)                       0
(PID.TID 0000.0001)     ;
(PID.TID 0000.0001) momDissip_In_AB = /* put Dissipation Tendency in Adams-Bash. stepping */
(PID.TID 0000.0001)                   T
(PID.TID 0000.0001)     ;
(PID.TID 0000.0001) doAB_onGtGs = /* apply AB on Tendencies (rather than on T,S)*/
(PID.TID 0000.0001)                   T
(PID.TID 0000.0001)     ;
(PID.TID 0000.0001) abEps =   /* Adams-Bashforth-2 stabilizing weight */
(PID.TID 0000.0001)                 1.000000000000000E-01
(PID.TID 0000.0001)     ;
(PID.TID 0000.0001) applyExchUV_early = /* Apply EXCH to U,V earlier in time-step */
(PID.TID 0000.0001)                   F
(PID.TID 0000.0001)     ;
(PID.TID 0000.0001) tauCD =   /* CD coupling time-scale ( s ) */
(PID.TID 0000.0001)                 3.214280000000000E+05
(PID.TID 0000.0001)     ;
(PID.TID 0000.0001) rCD =   /* Normalised CD coupling parameter */
(PID.TID 0000.0001)                 9.962666600296178E-01
(PID.TID 0000.0001)     ;
(PID.TID 0000.0001) epsAB_CD = /* AB-2 stabilizing weight for CD-scheme*/
(PID.TID 0000.0001)                 1.000000000000000E-01
(PID.TID 0000.0001)     ;
(PID.TID 0000.0001) pickupStrictlyMatch= /* stop if pickup do not strictly match */
(PID.TID 0000.0001)                   T
(PID.TID 0000.0001)     ;
(PID.TID 0000.0001) nIter0   =   /* Run starting timestep number */
(PID.TID 0000.0001)                       0
(PID.TID 0000.0001)     ;
(PID.TID 0000.0001) nTimeSteps = /* Number of timesteps */
(PID.TID 0000.0001)                      20
(PID.TID 0000.0001)     ;
(PID.TID 0000.0001) nEndIter =   /* Run ending timestep number */
(PID.TID 0000.0001)                      20
(PID.TID 0000.0001)     ;
(PID.TID 0000.0001) baseTime =   /* Model base time ( s ) */
(PID.TID 0000.0001)                 0.000000000000000E+00
(PID.TID 0000.0001)     ;
(PID.TID 0000.0001) startTime =  /* Run start time ( s ) */
(PID.TID 0000.0001)                 0.000000000000000E+00
(PID.TID 0000.0001)     ;
(PID.TID 0000.0001) endTime  =   /* Integration ending time ( s ) */
(PID.TID 0000.0001)                 8.640000000000000E+05
(PID.TID 0000.0001)     ;
(PID.TID 0000.0001) pChkPtFreq = /* Permanent restart/pickup file interval ( s ) */
(PID.TID 0000.0001)                 3.110400000000000E+08
(PID.TID 0000.0001)     ;
(PID.TID 0000.0001) chkPtFreq  = /* Rolling restart/pickup file interval ( s ) */
(PID.TID 0000.0001)                 0.000000000000000E+00
(PID.TID 0000.0001)     ;
(PID.TID 0000.0001) pickup_write_mdsio =   /* Model IO flag. */
(PID.TID 0000.0001)                   T
(PID.TID 0000.0001)     ;
(PID.TID 0000.0001) pickup_read_mdsio =   /* Model IO flag. */
(PID.TID 0000.0001)                   T
(PID.TID 0000.0001)     ;
(PID.TID 0000.0001) pickup_write_immed =   /* Model IO flag. */
(PID.TID 0000.0001)                   F
(PID.TID 0000.0001)     ;
(PID.TID 0000.0001) writePickupAtEnd =   /* Model IO flag. */
(PID.TID 0000.0001)                   T
(PID.TID 0000.0001)     ;
(PID.TID 0000.0001) dumpFreq =   /* Model state write out interval ( s ). */
(PID.TID 0000.0001)                 8.640000000000000E+05
(PID.TID 0000.0001)     ;
(PID.TID 0000.0001) dumpInitAndLast= /* write out Initial & Last iter. model state */
(PID.TID 0000.0001)                   T
(PID.TID 0000.0001)     ;
(PID.TID 0000.0001) snapshot_mdsio =   /* Model IO flag. */
(PID.TID 0000.0001)                   T
(PID.TID 0000.0001)     ;
(PID.TID 0000.0001) monitorFreq =   /* Monitor output interval ( s ). */
(PID.TID 0000.0001)                 1.000000000000000E+00
(PID.TID 0000.0001)     ;
(PID.TID 0000.0001) monitorSelect = /* select group of variables to monitor */
(PID.TID 0000.0001)                       3
(PID.TID 0000.0001)     ;
(PID.TID 0000.0001) monitor_stdio =   /* Model IO flag. */
(PID.TID 0000.0001)                   T
(PID.TID 0000.0001)     ;
(PID.TID 0000.0001) externForcingPeriod =   /* forcing period (s) */
(PID.TID 0000.0001)                 0.000000000000000E+00
(PID.TID 0000.0001)     ;
(PID.TID 0000.0001) externForcingCycle =   /* period of the cyle (s). */
(PID.TID 0000.0001)                 0.000000000000000E+00
(PID.TID 0000.0001)     ;
(PID.TID 0000.0001) tauThetaClimRelax =   /* relaxation time scale (s) */
(PID.TID 0000.0001)                 5.184000000000000E+06
(PID.TID 0000.0001)     ;
(PID.TID 0000.0001) tauSaltClimRelax =   /* relaxation time scale (s) */
(PID.TID 0000.0001)                 1.555200000000000E+07
(PID.TID 0000.0001)     ;
(PID.TID 0000.0001) latBandClimRelax =   /* max. Lat. where relaxation */
(PID.TID 0000.0001)                 1.800000000000000E+02
(PID.TID 0000.0001)     ;
(PID.TID 0000.0001) //
(PID.TID 0000.0001) // Gridding paramters ( PARM04 in namelist )
(PID.TID 0000.0001) //
(PID.TID 0000.0001) usingCartesianGrid = /* Cartesian coordinates flag ( True/False ) */
(PID.TID 0000.0001)                   F
(PID.TID 0000.0001)     ;
(PID.TID 0000.0001) usingCylindricalGrid = /* Cylindrical coordinates flag ( True/False ) */
(PID.TID 0000.0001)                   F
(PID.TID 0000.0001)     ;
(PID.TID 0000.0001) usingSphericalPolarGrid = /* Spherical coordinates flag ( True/False ) */
(PID.TID 0000.0001)                   T
(PID.TID 0000.0001)     ;
(PID.TID 0000.0001) usingCurvilinearGrid = /* Curvilinear coordinates flag ( True/False ) */
(PID.TID 0000.0001)                   F
(PID.TID 0000.0001)     ;
(PID.TID 0000.0001) selectSigmaCoord = /* Hybrid-Sigma Vert. Coordinate option */
(PID.TID 0000.0001)                       0
(PID.TID 0000.0001)     ;
(PID.TID 0000.0001) rSigmaBnd = /* r/sigma transition ( units of r ==  m ) */
(PID.TID 0000.0001)                 1.234567000000000E+05
(PID.TID 0000.0001)     ;
(PID.TID 0000.0001) rkSign =   /* index orientation relative to vertical coordinate */
(PID.TID 0000.0001)                -1.000000000000000E+00
(PID.TID 0000.0001)     ;
(PID.TID 0000.0001) gravitySign = /* gravity orientation relative to vertical coordinate */
(PID.TID 0000.0001)                -1.000000000000000E+00
(PID.TID 0000.0001)     ;
(PID.TID 0000.0001) seaLev_Z =  /* reference height of sea-level [m] */
(PID.TID 0000.0001)                 0.000000000000000E+00
(PID.TID 0000.0001)     ;
(PID.TID 0000.0001) top_Pres =  /* reference pressure at the top [Pa] */
(PID.TID 0000.0001)                 0.000000000000000E+00
(PID.TID 0000.0001)     ;
(PID.TID 0000.0001) mass2rUnit = /* convert mass per unit area [kg/m2] to r-units [m] */
(PID.TID 0000.0001)                 9.661835748792270E-04
(PID.TID 0000.0001)     ;
(PID.TID 0000.0001) rUnit2mass = /* convert r-units [m] to mass per unit area [kg/m2] */
(PID.TID 0000.0001)                 1.035000000000000E+03
(PID.TID 0000.0001)     ;
(PID.TID 0000.0001) drC =   /* C spacing ( units of r ) */
(PID.TID 0000.0001)                 2.500000000000000E+01,      /* K =  1 */
(PID.TID 0000.0001)                 6.000000000000000E+01,      /* K =  2 */
(PID.TID 0000.0001)                 8.500000000000000E+01,      /* K =  3 */
(PID.TID 0000.0001)                 1.200000000000000E+02,      /* K =  4 */
(PID.TID 0000.0001)                 1.650000000000000E+02,      /* K =  5 */
(PID.TID 0000.0001)                 2.150000000000000E+02,      /* K =  6 */
(PID.TID 0000.0001)                 2.650000000000000E+02,      /* K =  7 */
(PID.TID 0000.0001)                 3.150000000000000E+02,      /* K =  8 */
(PID.TID 0000.0001)                 3.650000000000000E+02,      /* K =  9 */
(PID.TID 0000.0001)                 4.150000000000000E+02,      /* K = 10 */
(PID.TID 0000.0001)                 4.650000000000000E+02,      /* K = 11 */
(PID.TID 0000.0001)                 5.150000000000000E+02,      /* K = 12 */
(PID.TID 0000.0001)                 5.650000000000000E+02,      /* K = 13 */
(PID.TID 0000.0001)                 6.150000000000000E+02,      /* K = 14 */
(PID.TID 0000.0001)                 6.650000000000000E+02,      /* K = 15 */
(PID.TID 0000.0001)                 3.450000000000000E+02       /* K = 16 */
(PID.TID 0000.0001)     ;
(PID.TID 0000.0001) drF =   /* W spacing ( units of r ) */
(PID.TID 0000.0001)                 5.000000000000000E+01,      /* K =  1 */
(PID.TID 0000.0001)                 7.000000000000000E+01,      /* K =  2 */
(PID.TID 0000.0001)                 1.000000000000000E+02,      /* K =  3 */
(PID.TID 0000.0001)                 1.400000000000000E+02,      /* K =  4 */
(PID.TID 0000.0001)                 1.900000000000000E+02,      /* K =  5 */
(PID.TID 0000.0001)                 2.400000000000000E+02,      /* K =  6 */
(PID.TID 0000.0001)                 2.900000000000000E+02,      /* K =  7 */
(PID.TID 0000.0001)                 3.400000000000000E+02,      /* K =  8 */
(PID.TID 0000.0001)                 3.900000000000000E+02,      /* K =  9 */
(PID.TID 0000.0001)                 4.400000000000000E+02,      /* K = 10 */
(PID.TID 0000.0001)                 4.900000000000000E+02,      /* K = 11 */
(PID.TID 0000.0001)                 5.400000000000000E+02,      /* K = 12 */
(PID.TID 0000.0001)                 5.900000000000000E+02,      /* K = 13 */
(PID.TID 0000.0001)                 6.400000000000000E+02,      /* K = 14 */
(PID.TID 0000.0001)                 6.900000000000000E+02       /* K = 15 */
(PID.TID 0000.0001)     ;
(PID.TID 0000.0001) delX = /* U spacing ( m - cartesian, degrees - spherical ) */
(PID.TID 0000.0001)    90 @  4.000000000000000E+00              /* I =  1: 90 */
(PID.TID 0000.0001)     ;
(PID.TID 0000.0001) delY = /* V spacing ( m - cartesian, degrees - spherical ) */
(PID.TID 0000.0001)    40 @  4.000000000000000E+00              /* J =  1: 40 */
(PID.TID 0000.0001)     ;
(PID.TID 0000.0001) xgOrigin = /* X-axis origin of West  edge (cartesian: m, lat-lon: deg) */
(PID.TID 0000.0001)                 0.000000000000000E+00
(PID.TID 0000.0001)     ;
(PID.TID 0000.0001) ygOrigin = /* Y-axis origin of South edge (cartesian: m, lat-lon: deg) */
(PID.TID 0000.0001)                -8.000000000000000E+01
(PID.TID 0000.0001)     ;
(PID.TID 0000.0001) rSphere =  /* Radius ( ignored - cartesian, m - spherical ) */
(PID.TID 0000.0001)                 6.370000000000000E+06
(PID.TID 0000.0001)     ;
(PID.TID 0000.0001) deepAtmosphere = /* Deep/Shallow Atmosphere flag (True/False) */
(PID.TID 0000.0001)                   F
(PID.TID 0000.0001)     ;
(PID.TID 0000.0001) xC =  /* xC(:,1,:,1) : P-point X coord ( deg. or m if cartesian) */
(PID.TID 0000.0001)                 2.000000000000000E+00,      /* I =  1 */
(PID.TID 0000.0001)                 6.000000000000000E+00,      /* I =  2 */
(PID.TID 0000.0001)                 1.000000000000000E+01,      /* I =  3 */
(PID.TID 0000.0001)      . . .
(PID.TID 0000.0001)                 8.200000000000000E+01,      /* I = 21 */
(PID.TID 0000.0001)                 8.600000000000000E+01,      /* I = 22 */
(PID.TID 0000.0001)                 9.000000000000000E+01,      /* I = 23 */
(PID.TID 0000.0001)                 9.400000000000000E+01,      /* I = 24 */
(PID.TID 0000.0001)                 9.800000000000000E+01,      /* I = 25 */
(PID.TID 0000.0001)                 1.020000000000000E+02,      /* I = 26 */
(PID.TID 0000.0001)      . . .
(PID.TID 0000.0001)                 1.700000000000000E+02,      /* I = 43 */
(PID.TID 0000.0001)                 1.740000000000000E+02,      /* I = 44 */
(PID.TID 0000.0001)                 1.780000000000000E+02,      /* I = 45 */
(PID.TID 0000.0001)                 1.820000000000000E+02,      /* I = 46 */
(PID.TID 0000.0001)                 1.860000000000000E+02,      /* I = 47 */
(PID.TID 0000.0001)                 1.900000000000000E+02,      /* I = 48 */
(PID.TID 0000.0001)      . . .
(PID.TID 0000.0001)                 2.580000000000000E+02,      /* I = 65 */
(PID.TID 0000.0001)                 2.620000000000000E+02,      /* I = 66 */
(PID.TID 0000.0001)                 2.660000000000000E+02,      /* I = 67 */
(PID.TID 0000.0001)                 2.700000000000000E+02,      /* I = 68 */
(PID.TID 0000.0001)                 2.740000000000000E+02,      /* I = 69 */
(PID.TID 0000.0001)                 2.780000000000000E+02,      /* I = 70 */
(PID.TID 0000.0001)      . . .
(PID.TID 0000.0001)                 3.500000000000000E+02,      /* I = 88 */
(PID.TID 0000.0001)                 3.540000000000000E+02,      /* I = 89 */
(PID.TID 0000.0001)                 3.580000000000000E+02       /* I = 90 */
(PID.TID 0000.0001)     ;
(PID.TID 0000.0001) yC =  /* yC(1,:,1,:) : P-point Y coord ( deg. or m if cartesian) */
(PID.TID 0000.0001)                -7.800000000000000E+01,      /* J =  1 */
(PID.TID 0000.0001)                -7.400000000000000E+01,      /* J =  2 */
(PID.TID 0000.0001)                -7.000000000000000E+01,      /* J =  3 */
(PID.TID 0000.0001)                -6.600000000000000E+01,      /* J =  4 */
(PID.TID 0000.0001)                -6.200000000000000E+01,      /* J =  5 */
(PID.TID 0000.0001)                -5.800000000000000E+01,      /* J =  6 */
(PID.TID 0000.0001)                -5.400000000000000E+01,      /* J =  7 */
(PID.TID 0000.0001)                -5.000000000000000E+01,      /* J =  8 */
(PID.TID 0000.0001)                -4.600000000000000E+01,      /* J =  9 */
(PID.TID 0000.0001)                -4.200000000000000E+01,      /* J = 10 */
(PID.TID 0000.0001)                -3.800000000000000E+01,      /* J = 11 */
(PID.TID 0000.0001)                -3.400000000000000E+01,      /* J = 12 */
(PID.TID 0000.0001)                -3.000000000000000E+01,      /* J = 13 */
(PID.TID 0000.0001)                -2.600000000000000E+01,      /* J = 14 */
(PID.TID 0000.0001)                -2.200000000000000E+01,      /* J = 15 */
(PID.TID 0000.0001)                -1.800000000000000E+01,      /* J = 16 */
(PID.TID 0000.0001)                -1.400000000000000E+01,      /* J = 17 */
(PID.TID 0000.0001)                -1.000000000000000E+01,      /* J = 18 */
(PID.TID 0000.0001)                -6.000000000000000E+00,      /* J = 19 */
(PID.TID 0000.0001)                -2.000000000000000E+00,      /* J = 20 */
(PID.TID 0000.0001)                 2.000000000000000E+00,      /* J = 21 */
(PID.TID 0000.0001)                 6.000000000000000E+00,      /* J = 22 */
(PID.TID 0000.0001)                 1.000000000000000E+01,      /* J = 23 */
(PID.TID 0000.0001)                 1.400000000000000E+01,      /* J = 24 */
(PID.TID 0000.0001)                 1.800000000000000E+01,      /* J = 25 */
(PID.TID 0000.0001)                 2.200000000000000E+01,      /* J = 26 */
(PID.TID 0000.0001)                 2.600000000000000E+01,      /* J = 27 */
(PID.TID 0000.0001)                 3.000000000000000E+01,      /* J = 28 */
(PID.TID 0000.0001)                 3.400000000000000E+01,      /* J = 29 */
(PID.TID 0000.0001)                 3.800000000000000E+01,      /* J = 30 */
(PID.TID 0000.0001)                 4.200000000000000E+01,      /* J = 31 */
(PID.TID 0000.0001)                 4.600000000000000E+01,      /* J = 32 */
(PID.TID 0000.0001)                 5.000000000000000E+01,      /* J = 33 */
(PID.TID 0000.0001)                 5.400000000000000E+01,      /* J = 34 */
(PID.TID 0000.0001)                 5.800000000000000E+01,      /* J = 35 */
(PID.TID 0000.0001)                 6.200000000000000E+01,      /* J = 36 */
(PID.TID 0000.0001)                 6.600000000000000E+01,      /* J = 37 */
(PID.TID 0000.0001)                 7.000000000000000E+01,      /* J = 38 */
(PID.TID 0000.0001)                 7.400000000000000E+01,      /* J = 39 */
(PID.TID 0000.0001)                 7.800000000000000E+01       /* J = 40 */
(PID.TID 0000.0001)     ;
(PID.TID 0000.0001) rcoord = /* P-point R coordinate (  units of r ) */
(PID.TID 0000.0001)                -2.500000000000000E+01,      /* K =  1 */
(PID.TID 0000.0001)                -8.500000000000000E+01,      /* K =  2 */
(PID.TID 0000.0001)                -1.700000000000000E+02,      /* K =  3 */
(PID.TID 0000.0001)                -2.900000000000000E+02,      /* K =  4 */
(PID.TID 0000.0001)                -4.550000000000000E+02,      /* K =  5 */
(PID.TID 0000.0001)                -6.700000000000000E+02,      /* K =  6 */
(PID.TID 0000.0001)                -9.350000000000000E+02,      /* K =  7 */
(PID.TID 0000.0001)                -1.250000000000000E+03,      /* K =  8 */
(PID.TID 0000.0001)                -1.615000000000000E+03,      /* K =  9 */
(PID.TID 0000.0001)                -2.030000000000000E+03,      /* K = 10 */
(PID.TID 0000.0001)                -2.495000000000000E+03,      /* K = 11 */
(PID.TID 0000.0001)                -3.010000000000000E+03,      /* K = 12 */
(PID.TID 0000.0001)                -3.575000000000000E+03,      /* K = 13 */
(PID.TID 0000.0001)                -4.190000000000000E+03,      /* K = 14 */
(PID.TID 0000.0001)                -4.855000000000000E+03       /* K = 15 */
(PID.TID 0000.0001)     ;
(PID.TID 0000.0001) rF =   /* W-Interf. R coordinate (  units of r ) */
(PID.TID 0000.0001)                 0.000000000000000E+00,      /* K =  1 */
(PID.TID 0000.0001)                -5.000000000000000E+01,      /* K =  2 */
(PID.TID 0000.0001)                -1.200000000000000E+02,      /* K =  3 */
(PID.TID 0000.0001)                -2.200000000000000E+02,      /* K =  4 */
(PID.TID 0000.0001)                -3.600000000000000E+02,      /* K =  5 */
(PID.TID 0000.0001)                -5.500000000000000E+02,      /* K =  6 */
(PID.TID 0000.0001)                -7.900000000000000E+02,      /* K =  7 */
(PID.TID 0000.0001)                -1.080000000000000E+03,      /* K =  8 */
(PID.TID 0000.0001)                -1.420000000000000E+03,      /* K =  9 */
(PID.TID 0000.0001)                -1.810000000000000E+03,      /* K = 10 */
(PID.TID 0000.0001)                -2.250000000000000E+03,      /* K = 11 */
(PID.TID 0000.0001)                -2.740000000000000E+03,      /* K = 12 */
(PID.TID 0000.0001)                -3.280000000000000E+03,      /* K = 13 */
(PID.TID 0000.0001)                -3.870000000000000E+03,      /* K = 14 */
(PID.TID 0000.0001)                -4.510000000000000E+03,      /* K = 15 */
(PID.TID 0000.0001)                -5.200000000000000E+03       /* K = 16 */
(PID.TID 0000.0001)     ;
(PID.TID 0000.0001) deepFacC = /* deep-model grid factor @ cell-Center (-) */
(PID.TID 0000.0001)    15 @  1.000000000000000E+00              /* K =  1: 15 */
(PID.TID 0000.0001)     ;
(PID.TID 0000.0001) deepFacF = /* deep-model grid factor @ W-Interface (-) */
(PID.TID 0000.0001)    16 @  1.000000000000000E+00              /* K =  1: 16 */
(PID.TID 0000.0001)     ;
(PID.TID 0000.0001) rVel2wUnit = /* convert units: rVel -> wSpeed (=1 if z-coord)*/
(PID.TID 0000.0001)    16 @  1.000000000000000E+00              /* K =  1: 16 */
(PID.TID 0000.0001)     ;
(PID.TID 0000.0001) wUnit2rVel = /* convert units: wSpeed -> rVel (=1 if z-coord)*/
(PID.TID 0000.0001)    16 @  1.000000000000000E+00              /* K =  1: 16 */
(PID.TID 0000.0001)     ;
(PID.TID 0000.0001) dBdrRef = /* Vertical grad. of reference buoyancy [(m/s/r)^2] */
(PID.TID 0000.0001)    15 @  0.000000000000000E+00              /* K =  1: 15 */
(PID.TID 0000.0001)     ;
(PID.TID 0000.0001) rotateGrid = /* use rotated grid ( True/False ) */
(PID.TID 0000.0001)                   F
(PID.TID 0000.0001)     ;
(PID.TID 0000.0001) phiEuler = /* Euler angle, rotation about original z-coordinate [rad] */
(PID.TID 0000.0001)                 0.000000000000000E+00
(PID.TID 0000.0001)     ;
(PID.TID 0000.0001) thetaEuler = /* Euler angle, rotation about new x-coordinate [rad] */
(PID.TID 0000.0001)                 0.000000000000000E+00
(PID.TID 0000.0001)     ;
(PID.TID 0000.0001) psiEuler = /* Euler angle, rotation about new z-coordinate [rad] */
(PID.TID 0000.0001)                 0.000000000000000E+00
(PID.TID 0000.0001)     ;
(PID.TID 0000.0001) dxF =  /* dxF(:,1,:,1) ( units: m ) */
(PID.TID 0000.0001)    90 @  9.246038586187513E+04              /* I =  1: 90 */
(PID.TID 0000.0001)     ;
(PID.TID 0000.0001) dxF =  /* dxF(1,:,1,:) ( units: m ) */
(PID.TID 0000.0001)                 9.246038586187513E+04,      /* J =  1 */
(PID.TID 0000.0001)                 1.225786591246834E+05,      /* J =  2 */
(PID.TID 0000.0001)                 1.520997414818001E+05,      /* J =  3 */
(PID.TID 0000.0001)                 1.808798091874300E+05,      /* J =  4 */
(PID.TID 0000.0001)                 2.087786486446736E+05,      /* J =  5 */
(PID.TID 0000.0001)                 2.356603395120765E+05,      /* J =  6 */
(PID.TID 0000.0001)                 2.613939168938713E+05,      /* J =  7 */
(PID.TID 0000.0001)                 2.858540093877838E+05,      /* J =  8 */
(PID.TID 0000.0001)                 3.089214498819034E+05,      /* J =  9 */
(PID.TID 0000.0001)                 3.304838561248741E+05,      /* J = 10 */
(PID.TID 0000.0001)                 3.504361782409254E+05,      /* J = 11 */
(PID.TID 0000.0001)                 3.686812105223082E+05,      /* J = 12 */
(PID.TID 0000.0001)                 3.851300650057323E+05,      /* J = 13 */
(PID.TID 0000.0001)                 3.997026045255871E+05,      /* J = 14 */
(PID.TID 0000.0001)                 4.123278331341585E+05,      /* J = 15 */
(PID.TID 0000.0001)                 4.229442419867491E+05,      /* J = 16 */
(PID.TID 0000.0001)                 4.315001090065870E+05,      /* J = 17 */
(PID.TID 0000.0001)                 4.379537508695838E+05,      /* J = 18 */
(PID.TID 0000.0001)                 4.422737260813012E+05,      /* J = 19 */
(PID.TID 0000.0001)     2 @  4.444389881567502E+05,             /* J = 20: 21 */
(PID.TID 0000.0001)                 4.422737260813012E+05,      /* J = 22 */
(PID.TID 0000.0001)                 4.379537508695838E+05,      /* J = 23 */
(PID.TID 0000.0001)                 4.315001090065870E+05,      /* J = 24 */
(PID.TID 0000.0001)                 4.229442419867491E+05,      /* J = 25 */
(PID.TID 0000.0001)                 4.123278331341585E+05,      /* J = 26 */
(PID.TID 0000.0001)                 3.997026045255871E+05,      /* J = 27 */
(PID.TID 0000.0001)                 3.851300650057323E+05,      /* J = 28 */
(PID.TID 0000.0001)                 3.686812105223082E+05,      /* J = 29 */
(PID.TID 0000.0001)                 3.504361782409254E+05,      /* J = 30 */
(PID.TID 0000.0001)                 3.304838561248741E+05,      /* J = 31 */
(PID.TID 0000.0001)                 3.089214498819034E+05,      /* J = 32 */
(PID.TID 0000.0001)                 2.858540093877838E+05,      /* J = 33 */
(PID.TID 0000.0001)                 2.613939168938713E+05,      /* J = 34 */
(PID.TID 0000.0001)                 2.356603395120765E+05,      /* J = 35 */
(PID.TID 0000.0001)                 2.087786486446736E+05,      /* J = 36 */
(PID.TID 0000.0001)                 1.808798091874300E+05,      /* J = 37 */
(PID.TID 0000.0001)                 1.520997414818001E+05,      /* J = 38 */
(PID.TID 0000.0001)                 1.225786591246834E+05,      /* J = 39 */
(PID.TID 0000.0001)                 9.246038586187513E+04       /* J = 40 */
(PID.TID 0000.0001)     ;
(PID.TID 0000.0001) dyF =  /* dyF(:,1,:,1) ( units: m ) */
(PID.TID 0000.0001)    90 @  4.447098934081552E+05              /* I =  1: 90 */
(PID.TID 0000.0001)     ;
(PID.TID 0000.0001) dyF =  /* dyF(1,:,1,:) ( units: m ) */
(PID.TID 0000.0001)    40 @  4.447098934081552E+05              /* J =  1: 40 */
(PID.TID 0000.0001)     ;
(PID.TID 0000.0001) dxG =  /* dxG(:,1,:,1) ( units: m ) */
(PID.TID 0000.0001)    90 @  7.722306258078101E+04              /* I =  1: 90 */
(PID.TID 0000.0001)     ;
(PID.TID 0000.0001) dxG =  /* dxG(1,:,1,:) ( units: m ) */
(PID.TID 0000.0001)                 7.722306258078101E+04,      /* J =  1 */
(PID.TID 0000.0001)                 1.075850604052271E+05,      /* J =  2 */
(PID.TID 0000.0001)                 1.374229146297914E+05,      /* J =  3 */
(PID.TID 0000.0001)                 1.665912582279823E+05,      /* J =  4 */
(PID.TID 0000.0001)                 1.949479859617814E+05,      /* J =  5 */
(PID.TID 0000.0001)                 2.223549467040777E+05,      /* J =  6 */
(PID.TID 0000.0001)                 2.486786164970726E+05,      /* J =  7 */
(PID.TID 0000.0001)                 2.737907490675810E+05,      /* J =  8 */
(PID.TID 0000.0001)                 2.975690006299821E+05,      /* J =  9 */
(PID.TID 0000.0001)                 3.198975259328452E+05,      /* J = 10 */
(PID.TID 0000.0001)                 3.406675426453503E+05,      /* J = 11 */
(PID.TID 0000.0001)                 3.597778613338690E+05,      /* J = 12 */
(PID.TID 0000.0001)                 3.771353784467131E+05,      /* J = 13 */
(PID.TID 0000.0001)                 3.926555299052806E+05,      /* J = 14 */
(PID.TID 0000.0001)                 4.062627030917454E+05,      /* J = 15 */
(PID.TID 0000.0001)                 4.178906052261313E+05,      /* J = 16 */
(PID.TID 0000.0001)                 4.274825863380723E+05,      /* J = 17 */
(PID.TID 0000.0001)                 4.349919152597734E+05,      /* J = 18 */
(PID.TID 0000.0001)                 4.403820072955634E+05,      /* J = 19 */
(PID.TID 0000.0001)                 4.436266024588540E+05,      /* J = 20 */
(PID.TID 0000.0001)                 4.447098934081552E+05,      /* J = 21 */
(PID.TID 0000.0001)                 4.436266024588540E+05,      /* J = 22 */
(PID.TID 0000.0001)                 4.403820072955634E+05,      /* J = 23 */
(PID.TID 0000.0001)                 4.349919152597734E+05,      /* J = 24 */
(PID.TID 0000.0001)                 4.274825863380723E+05,      /* J = 25 */
(PID.TID 0000.0001)                 4.178906052261313E+05,      /* J = 26 */
(PID.TID 0000.0001)                 4.062627030917454E+05,      /* J = 27 */
(PID.TID 0000.0001)                 3.926555299052806E+05,      /* J = 28 */
(PID.TID 0000.0001)                 3.771353784467131E+05,      /* J = 29 */
(PID.TID 0000.0001)                 3.597778613338690E+05,      /* J = 30 */
(PID.TID 0000.0001)                 3.406675426453503E+05,      /* J = 31 */
(PID.TID 0000.0001)                 3.198975259328452E+05,      /* J = 32 */
(PID.TID 0000.0001)                 2.975690006299821E+05,      /* J = 33 */
(PID.TID 0000.0001)                 2.737907490675810E+05,      /* J = 34 */
(PID.TID 0000.0001)                 2.486786164970726E+05,      /* J = 35 */
(PID.TID 0000.0001)                 2.223549467040777E+05,      /* J = 36 */
(PID.TID 0000.0001)                 1.949479859617814E+05,      /* J = 37 */
(PID.TID 0000.0001)                 1.665912582279823E+05,      /* J = 38 */
(PID.TID 0000.0001)                 1.374229146297914E+05,      /* J = 39 */
(PID.TID 0000.0001)                 1.075850604052271E+05       /* J = 40 */
(PID.TID 0000.0001)     ;
(PID.TID 0000.0001) dyG =  /* dyG(:,1,:,1) ( units: m ) */
(PID.TID 0000.0001)    90 @  4.447098934081552E+05              /* I =  1: 90 */
(PID.TID 0000.0001)     ;
(PID.TID 0000.0001) dyG =  /* dyG(1,:,1,:) ( units: m ) */
(PID.TID 0000.0001)    40 @  4.447098934081552E+05              /* J =  1: 40 */
(PID.TID 0000.0001)     ;
(PID.TID 0000.0001) dxC =  /* dxC(:,1,:,1) ( units: m ) */
(PID.TID 0000.0001)    90 @  9.246038586187513E+04              /* I =  1: 90 */
(PID.TID 0000.0001)     ;
(PID.TID 0000.0001) dxC =  /* dxC(1,:,1,:) ( units: m ) */
(PID.TID 0000.0001)                 9.246038586187513E+04,      /* J =  1 */
(PID.TID 0000.0001)                 1.225786591246834E+05,      /* J =  2 */
(PID.TID 0000.0001)                 1.520997414818001E+05,      /* J =  3 */
(PID.TID 0000.0001)                 1.808798091874300E+05,      /* J =  4 */
(PID.TID 0000.0001)                 2.087786486446736E+05,      /* J =  5 */
(PID.TID 0000.0001)                 2.356603395120765E+05,      /* J =  6 */
(PID.TID 0000.0001)                 2.613939168938713E+05,      /* J =  7 */
(PID.TID 0000.0001)                 2.858540093877838E+05,      /* J =  8 */
(PID.TID 0000.0001)                 3.089214498819034E+05,      /* J =  9 */
(PID.TID 0000.0001)                 3.304838561248741E+05,      /* J = 10 */
(PID.TID 0000.0001)                 3.504361782409254E+05,      /* J = 11 */
(PID.TID 0000.0001)                 3.686812105223082E+05,      /* J = 12 */
(PID.TID 0000.0001)                 3.851300650057323E+05,      /* J = 13 */
(PID.TID 0000.0001)                 3.997026045255871E+05,      /* J = 14 */
(PID.TID 0000.0001)                 4.123278331341585E+05,      /* J = 15 */
(PID.TID 0000.0001)                 4.229442419867491E+05,      /* J = 16 */
(PID.TID 0000.0001)                 4.315001090065870E+05,      /* J = 17 */
(PID.TID 0000.0001)                 4.379537508695838E+05,      /* J = 18 */
(PID.TID 0000.0001)                 4.422737260813012E+05,      /* J = 19 */
(PID.TID 0000.0001)     2 @  4.444389881567502E+05,             /* J = 20: 21 */
(PID.TID 0000.0001)                 4.422737260813012E+05,      /* J = 22 */
(PID.TID 0000.0001)                 4.379537508695838E+05,      /* J = 23 */
(PID.TID 0000.0001)                 4.315001090065870E+05,      /* J = 24 */
(PID.TID 0000.0001)                 4.229442419867491E+05,      /* J = 25 */
(PID.TID 0000.0001)                 4.123278331341585E+05,      /* J = 26 */
(PID.TID 0000.0001)                 3.997026045255871E+05,      /* J = 27 */
(PID.TID 0000.0001)                 3.851300650057323E+05,      /* J = 28 */
(PID.TID 0000.0001)                 3.686812105223082E+05,      /* J = 29 */
(PID.TID 0000.0001)                 3.504361782409254E+05,      /* J = 30 */
(PID.TID 0000.0001)                 3.304838561248741E+05,      /* J = 31 */
(PID.TID 0000.0001)                 3.089214498819034E+05,      /* J = 32 */
(PID.TID 0000.0001)                 2.858540093877838E+05,      /* J = 33 */
(PID.TID 0000.0001)                 2.613939168938713E+05,      /* J = 34 */
(PID.TID 0000.0001)                 2.356603395120765E+05,      /* J = 35 */
(PID.TID 0000.0001)                 2.087786486446736E+05,      /* J = 36 */
(PID.TID 0000.0001)                 1.808798091874300E+05,      /* J = 37 */
(PID.TID 0000.0001)                 1.520997414818001E+05,      /* J = 38 */
(PID.TID 0000.0001)                 1.225786591246834E+05,      /* J = 39 */
(PID.TID 0000.0001)                 9.246038586187513E+04       /* J = 40 */
(PID.TID 0000.0001)     ;
(PID.TID 0000.0001) dyC =  /* dyC(:,1,:,1) ( units: m ) */
(PID.TID 0000.0001)    90 @  4.447098934081552E+05              /* I =  1: 90 */
(PID.TID 0000.0001)     ;
(PID.TID 0000.0001) dyC =  /* dyC(1,:,1,:) ( units: m ) */
(PID.TID 0000.0001)    40 @  4.447098934081552E+05              /* J =  1: 40 */
(PID.TID 0000.0001)     ;
(PID.TID 0000.0001) dxV =  /* dxV(:,1,:,1) ( units: m ) */
(PID.TID 0000.0001)    90 @  7.722306258078101E+04              /* I =  1: 90 */
(PID.TID 0000.0001)     ;
(PID.TID 0000.0001) dxV =  /* dxV(1,:,1,:) ( units: m ) */
(PID.TID 0000.0001)                 7.722306258078101E+04,      /* J =  1 */
(PID.TID 0000.0001)                 1.075850604052271E+05,      /* J =  2 */
(PID.TID 0000.0001)                 1.374229146297914E+05,      /* J =  3 */
(PID.TID 0000.0001)                 1.665912582279823E+05,      /* J =  4 */
(PID.TID 0000.0001)                 1.949479859617814E+05,      /* J =  5 */
(PID.TID 0000.0001)                 2.223549467040777E+05,      /* J =  6 */
(PID.TID 0000.0001)                 2.486786164970726E+05,      /* J =  7 */
(PID.TID 0000.0001)                 2.737907490675810E+05,      /* J =  8 */
(PID.TID 0000.0001)                 2.975690006299821E+05,      /* J =  9 */
(PID.TID 0000.0001)                 3.198975259328452E+05,      /* J = 10 */
(PID.TID 0000.0001)                 3.406675426453503E+05,      /* J = 11 */
(PID.TID 0000.0001)                 3.597778613338690E+05,      /* J = 12 */
(PID.TID 0000.0001)                 3.771353784467131E+05,      /* J = 13 */
(PID.TID 0000.0001)                 3.926555299052806E+05,      /* J = 14 */
(PID.TID 0000.0001)                 4.062627030917454E+05,      /* J = 15 */
(PID.TID 0000.0001)                 4.178906052261313E+05,      /* J = 16 */
(PID.TID 0000.0001)                 4.274825863380723E+05,      /* J = 17 */
(PID.TID 0000.0001)                 4.349919152597734E+05,      /* J = 18 */
(PID.TID 0000.0001)                 4.403820072955634E+05,      /* J = 19 */
(PID.TID 0000.0001)                 4.436266024588540E+05,      /* J = 20 */
(PID.TID 0000.0001)                 4.447098934081552E+05,      /* J = 21 */
(PID.TID 0000.0001)                 4.436266024588540E+05,      /* J = 22 */
(PID.TID 0000.0001)                 4.403820072955634E+05,      /* J = 23 */
(PID.TID 0000.0001)                 4.349919152597734E+05,      /* J = 24 */
(PID.TID 0000.0001)                 4.274825863380723E+05,      /* J = 25 */
(PID.TID 0000.0001)                 4.178906052261313E+05,      /* J = 26 */
(PID.TID 0000.0001)                 4.062627030917454E+05,      /* J = 27 */
(PID.TID 0000.0001)                 3.926555299052806E+05,      /* J = 28 */
(PID.TID 0000.0001)                 3.771353784467131E+05,      /* J = 29 */
(PID.TID 0000.0001)                 3.597778613338690E+05,      /* J = 30 */
(PID.TID 0000.0001)                 3.406675426453503E+05,      /* J = 31 */
(PID.TID 0000.0001)                 3.198975259328452E+05,      /* J = 32 */
(PID.TID 0000.0001)                 2.975690006299821E+05,      /* J = 33 */
(PID.TID 0000.0001)                 2.737907490675810E+05,      /* J = 34 */
(PID.TID 0000.0001)                 2.486786164970726E+05,      /* J = 35 */
(PID.TID 0000.0001)                 2.223549467040777E+05,      /* J = 36 */
(PID.TID 0000.0001)                 1.949479859617814E+05,      /* J = 37 */
(PID.TID 0000.0001)                 1.665912582279823E+05,      /* J = 38 */
(PID.TID 0000.0001)                 1.374229146297914E+05,      /* J = 39 */
(PID.TID 0000.0001)                 1.075850604052271E+05       /* J = 40 */
(PID.TID 0000.0001)     ;
(PID.TID 0000.0001) dyU =  /* dyU(:,1,:,1) ( units: m ) */
(PID.TID 0000.0001)    90 @  4.447098934081552E+05              /* I =  1: 90 */
(PID.TID 0000.0001)     ;
(PID.TID 0000.0001) dyU =  /* dyU(1,:,1,:) ( units: m ) */
(PID.TID 0000.0001)    40 @  4.447098934081552E+05              /* J =  1: 40 */
(PID.TID 0000.0001)     ;
(PID.TID 0000.0001) rA  =  /* rA (:,1,:,1) ( units: m^2 ) */
(PID.TID 0000.0001)    90 @  4.110969866729047E+10              /* I =  1: 90 */
(PID.TID 0000.0001)     ;
(PID.TID 0000.0001) rA  =  /* rA (1,:,1,:) ( units: m^2 ) */
(PID.TID 0000.0001)                 4.110969866729047E+10,      /* J =  1 */
(PID.TID 0000.0001)                 5.450087291636665E+10,      /* J =  2 */
(PID.TID 0000.0001)                 6.762652439100235E+10,      /* J =  3 */
(PID.TID 0000.0001)                 8.042270623659998E+10,      /* J =  4 */
(PID.TID 0000.0001)                 9.282707674147523E+10,      /* J =  5 */
(PID.TID 0000.0001)                 1.047792030594103E+11,      /* J =  6 */
(PID.TID 0000.0001)                 1.162208556324093E+11,      /* J =  7 */
(PID.TID 0000.0001)                 1.270962918792468E+11,      /* J =  8 */
(PID.TID 0000.0001)                 1.373525277677229E+11,      /* J =  9 */
(PID.TID 0000.0001)                 1.469395959475426E+11,      /* J = 10 */
(PID.TID 0000.0001)                 1.558107891862220E+11,      /* J = 11 */
(PID.TID 0000.0001)                 1.639228879220326E+11,      /* J = 12 */
(PID.TID 0000.0001)                 1.712363708253573E+11,      /* J = 13 */
(PID.TID 0000.0001)                 1.777156073426415E+11,      /* J = 14 */
(PID.TID 0000.0001)                 1.833290312848623E+11,      /* J = 15 */
(PID.TID 0000.0001)                 1.880492946148330E+11,      /* J = 16 */
(PID.TID 0000.0001)                 1.918534006840893E+11,      /* J = 17 */
(PID.TID 0000.0001)                 1.947228162702492E+11,      /* J = 18 */
(PID.TID 0000.0001)                 1.966435618690094E+11,      /* J = 19 */
(PID.TID 0000.0001)     2 @  1.976062798008856E+11,             /* J = 20: 21 */
(PID.TID 0000.0001)                 1.966435618690094E+11,      /* J = 22 */
(PID.TID 0000.0001)                 1.947228162702492E+11,      /* J = 23 */
(PID.TID 0000.0001)                 1.918534006840893E+11,      /* J = 24 */
(PID.TID 0000.0001)                 1.880492946148330E+11,      /* J = 25 */
(PID.TID 0000.0001)                 1.833290312848623E+11,      /* J = 26 */
(PID.TID 0000.0001)                 1.777156073426415E+11,      /* J = 27 */
(PID.TID 0000.0001)                 1.712363708253573E+11,      /* J = 28 */
(PID.TID 0000.0001)                 1.639228879220326E+11,      /* J = 29 */
(PID.TID 0000.0001)                 1.558107891862220E+11,      /* J = 30 */
(PID.TID 0000.0001)                 1.469395959475426E+11,      /* J = 31 */
(PID.TID 0000.0001)                 1.373525277677229E+11,      /* J = 32 */
(PID.TID 0000.0001)                 1.270962918792468E+11,      /* J = 33 */
(PID.TID 0000.0001)                 1.162208556324093E+11,      /* J = 34 */
(PID.TID 0000.0001)                 1.047792030594103E+11,      /* J = 35 */
(PID.TID 0000.0001)                 9.282707674147523E+10,      /* J = 36 */
(PID.TID 0000.0001)                 8.042270623659998E+10,      /* J = 37 */
(PID.TID 0000.0001)                 6.762652439100235E+10,      /* J = 38 */
(PID.TID 0000.0001)                 5.450087291636665E+10,      /* J = 39 */
(PID.TID 0000.0001)                 4.110969866729047E+10       /* J = 40 */
(PID.TID 0000.0001)     ;
(PID.TID 0000.0001) rAw =  /* rAw(:,1,:,1) ( units: m^2 ) */
(PID.TID 0000.0001)    90 @  4.110969866729047E+10              /* I =  1: 90 */
(PID.TID 0000.0001)     ;
(PID.TID 0000.0001) rAw =  /* rAw(1,:,1,:) ( units: m^2 ) */
(PID.TID 0000.0001)                 4.110969866729047E+10,      /* J =  1 */
(PID.TID 0000.0001)                 5.450087291636665E+10,      /* J =  2 */
(PID.TID 0000.0001)                 6.762652439100235E+10,      /* J =  3 */
(PID.TID 0000.0001)                 8.042270623659998E+10,      /* J =  4 */
(PID.TID 0000.0001)                 9.282707674147523E+10,      /* J =  5 */
(PID.TID 0000.0001)                 1.047792030594103E+11,      /* J =  6 */
(PID.TID 0000.0001)                 1.162208556324093E+11,      /* J =  7 */
(PID.TID 0000.0001)                 1.270962918792468E+11,      /* J =  8 */
(PID.TID 0000.0001)                 1.373525277677229E+11,      /* J =  9 */
(PID.TID 0000.0001)                 1.469395959475426E+11,      /* J = 10 */
(PID.TID 0000.0001)                 1.558107891862220E+11,      /* J = 11 */
(PID.TID 0000.0001)                 1.639228879220326E+11,      /* J = 12 */
(PID.TID 0000.0001)                 1.712363708253573E+11,      /* J = 13 */
(PID.TID 0000.0001)                 1.777156073426415E+11,      /* J = 14 */
(PID.TID 0000.0001)                 1.833290312848623E+11,      /* J = 15 */
(PID.TID 0000.0001)                 1.880492946148330E+11,      /* J = 16 */
(PID.TID 0000.0001)                 1.918534006840893E+11,      /* J = 17 */
(PID.TID 0000.0001)                 1.947228162702492E+11,      /* J = 18 */
(PID.TID 0000.0001)                 1.966435618690094E+11,      /* J = 19 */
(PID.TID 0000.0001)     2 @  1.976062798008856E+11,             /* J = 20: 21 */
(PID.TID 0000.0001)                 1.966435618690094E+11,      /* J = 22 */
(PID.TID 0000.0001)                 1.947228162702492E+11,      /* J = 23 */
(PID.TID 0000.0001)                 1.918534006840893E+11,      /* J = 24 */
(PID.TID 0000.0001)                 1.880492946148330E+11,      /* J = 25 */
(PID.TID 0000.0001)                 1.833290312848623E+11,      /* J = 26 */
(PID.TID 0000.0001)                 1.777156073426415E+11,      /* J = 27 */
(PID.TID 0000.0001)                 1.712363708253573E+11,      /* J = 28 */
(PID.TID 0000.0001)                 1.639228879220326E+11,      /* J = 29 */
(PID.TID 0000.0001)                 1.558107891862220E+11,      /* J = 30 */
(PID.TID 0000.0001)                 1.469395959475426E+11,      /* J = 31 */
(PID.TID 0000.0001)                 1.373525277677229E+11,      /* J = 32 */
(PID.TID 0000.0001)                 1.270962918792468E+11,      /* J = 33 */
(PID.TID 0000.0001)                 1.162208556324093E+11,      /* J = 34 */
(PID.TID 0000.0001)                 1.047792030594103E+11,      /* J = 35 */
(PID.TID 0000.0001)                 9.282707674147523E+10,      /* J = 36 */
(PID.TID 0000.0001)                 8.042270623659998E+10,      /* J = 37 */
(PID.TID 0000.0001)                 6.762652439100235E+10,      /* J = 38 */
(PID.TID 0000.0001)                 5.450087291636665E+10,      /* J = 39 */
(PID.TID 0000.0001)                 4.110969866729047E+10       /* J = 40 */
(PID.TID 0000.0001)     ;
(PID.TID 0000.0001) rAs =  /* rAs(:,1,:,1) ( units: m^2 ) */
(PID.TID 0000.0001)    90 @  3.433488626798250E+10              /* I =  1: 90 */
(PID.TID 0000.0001)     ;
(PID.TID 0000.0001) rAs =  /* rAs(1,:,1,:) ( units: m^2 ) */
(PID.TID 0000.0001)                 3.433488626798250E+10,      /* J =  1 */
(PID.TID 0000.0001)                 4.783442523123625E+10,      /* J =  2 */
(PID.TID 0000.0001)                 6.110091968306414E+10,      /* J =  3 */
(PID.TID 0000.0001)                 7.406973659603818E+10,      /* J =  4 */
(PID.TID 0000.0001)                 8.667769319778079E+10,      /* J =  5 */
(PID.TID 0000.0001)                 9.886336479107463E+10,      /* J =  6 */
(PID.TID 0000.0001)                 1.105673840088173E+11,      /* J =  7 */
(PID.TID 0000.0001)                 1.217327300458638E+11,      /* J =  8 */
(PID.TID 0000.0001)                 1.323050064586578E+11,      /* J =  9 */
(PID.TID 0000.0001)                 1.422327061792377E+11,      /* J = 10 */
(PID.TID 0000.0001)                 1.514674624524945E+11,      /* J = 11 */
(PID.TID 0000.0001)                 1.599642844741385E+11,      /* J = 12 */
(PID.TID 0000.0001)                 1.676817765813788E+11,      /* J = 13 */
(PID.TID 0000.0001)                 1.745823399284268E+11,      /* J = 14 */
(PID.TID 0000.0001)                 1.806323556642996E+11,      /* J = 15 */
(PID.TID 0000.0001)                 1.858023487204767E+11,      /* J = 16 */
(PID.TID 0000.0001)                 1.900671314104743E+11,      /* J = 17 */
(PID.TID 0000.0001)                 1.934059261417216E+11,      /* J = 18 */
(PID.TID 0000.0001)                 1.958024666419019E+11,      /* J = 19 */
(PID.TID 0000.0001)                 1.972450772065981E+11,      /* J = 20 */
(PID.TID 0000.0001)                 1.977267295821495E+11,      /* J = 21 */
(PID.TID 0000.0001)                 1.972450772065981E+11,      /* J = 22 */
(PID.TID 0000.0001)                 1.958024666419019E+11,      /* J = 23 */
(PID.TID 0000.0001)                 1.934059261417216E+11,      /* J = 24 */
(PID.TID 0000.0001)                 1.900671314104743E+11,      /* J = 25 */
(PID.TID 0000.0001)                 1.858023487204767E+11,      /* J = 26 */
(PID.TID 0000.0001)                 1.806323556642996E+11,      /* J = 27 */
(PID.TID 0000.0001)                 1.745823399284268E+11,      /* J = 28 */
(PID.TID 0000.0001)                 1.676817765813788E+11,      /* J = 29 */
(PID.TID 0000.0001)                 1.599642844741385E+11,      /* J = 30 */
(PID.TID 0000.0001)                 1.514674624524945E+11,      /* J = 31 */
(PID.TID 0000.0001)                 1.422327061792377E+11,      /* J = 32 */
(PID.TID 0000.0001)                 1.323050064586578E+11,      /* J = 33 */
(PID.TID 0000.0001)                 1.217327300458638E+11,      /* J = 34 */
(PID.TID 0000.0001)                 1.105673840088173E+11,      /* J = 35 */
(PID.TID 0000.0001)                 9.886336479107463E+10,      /* J = 36 */
(PID.TID 0000.0001)                 8.667769319778079E+10,      /* J = 37 */
(PID.TID 0000.0001)                 7.406973659603818E+10,      /* J = 38 */
(PID.TID 0000.0001)                 6.110091968306414E+10,      /* J = 39 */
(PID.TID 0000.0001)                 4.783442523123625E+10       /* J = 40 */
(PID.TID 0000.0001)     ;
(PID.TID 0000.0001) globalArea = /* Integrated horizontal Area (m^2) */
(PID.TID 0000.0001)                 3.450614146649764E+14
(PID.TID 0000.0001)     ;
(PID.TID 0000.0001) // =======================================================
(PID.TID 0000.0001) // End of Model config. summary
(PID.TID 0000.0001) // =======================================================
(PID.TID 0000.0001) 
(PID.TID 0000.0001) == Packages configuration : Check & print summary ==
(PID.TID 0000.0001) 
(PID.TID 0000.0001) GMREDI_CHECK: #define GMREDI
(PID.TID 0000.0001) GM_AdvForm =     /* if FALSE => use SkewFlux Form */
(PID.TID 0000.0001)                   F
(PID.TID 0000.0001)     ;
(PID.TID 0000.0001) GM_InMomAsStress = /* if TRUE => apply as Eddy Stress */
(PID.TID 0000.0001)                   F
(PID.TID 0000.0001)     ;
(PID.TID 0000.0001) GM_AdvSeparate = /* Calc Bolus & Euler Adv. separately */
(PID.TID 0000.0001)                   F
(PID.TID 0000.0001)     ;
(PID.TID 0000.0001) GM_ExtraDiag =   /* Tensor Extra Diag (line 1&2) non 0 */
(PID.TID 0000.0001)                   F
(PID.TID 0000.0001)     ;
(PID.TID 0000.0001) GM_isopycK =    /* Background Isopyc. Diffusivity [m^2/s] */
(PID.TID 0000.0001)                 1.000000000000000E+03
(PID.TID 0000.0001)     ;
(PID.TID 0000.0001) GM_skewflx*K =  /* Background GM_SkewFlx Diffusivity [m^2/s] */
(PID.TID 0000.0001)                 1.000000000000000E+03
(PID.TID 0000.0001)     ;
(PID.TID 0000.0001) GM_advec*K =    /* Backg. GM-Advec(=Bolus) Diffusivity [m^2/s]*/
(PID.TID 0000.0001)                 0.000000000000000E+00
(PID.TID 0000.0001)     ;
(PID.TID 0000.0001) GM_Kmin_horiz = /* Minimum Horizontal Diffusivity [m^2/s] */
(PID.TID 0000.0001)                 5.000000000000000E+01
(PID.TID 0000.0001)     ;
(PID.TID 0000.0001) GM_Visbeck_alpha = /* Visbeck alpha coeff. [-] */
(PID.TID 0000.0001)                 0.000000000000000E+00
(PID.TID 0000.0001)     ;
(PID.TID 0000.0001) GM_Small_Number =  /* epsilon used in slope calc */
(PID.TID 0000.0001)                 9.999999999999999E-21
(PID.TID 0000.0001)     ;
(PID.TID 0000.0001) GM_slopeSqCutoff = /* Slope^2 cut-off value */
(PID.TID 0000.0001)                 1.000000000000000E+48
(PID.TID 0000.0001)     ;
(PID.TID 0000.0001) GM_taper_scheme =  /* Type of Tapering/Clipping scheme */
(PID.TID 0000.0001)               'gkw91                                   '
(PID.TID 0000.0001)     ;
(PID.TID 0000.0001) GM_maxSlope =  /* Maximum Slope (Tapering/Clipping) */
(PID.TID 0000.0001)                 1.000000000000000E-02
(PID.TID 0000.0001)     ;
(PID.TID 0000.0001) GM_facTrL2dz = /* Minimum Trans.Layer Thick. (factor of dz) */
(PID.TID 0000.0001)                 1.000000000000000E+00
(PID.TID 0000.0001)     ;
(PID.TID 0000.0001) GM_facTrL2ML = /* Max.Trans.Layer Thick. (factor of MxL Depth)*/
(PID.TID 0000.0001)                 5.000000000000000E+00
(PID.TID 0000.0001)     ;
(PID.TID 0000.0001) GM_maxTransLay = /* Maximum Transition Layer Thickness [m] */
(PID.TID 0000.0001)                 5.000000000000000E+02
(PID.TID 0000.0001)     ;
(PID.TID 0000.0001) GM_UseBVP = /* if TRUE => use bvp a la Ferrari et al. (2010) */
(PID.TID 0000.0001)                   F
(PID.TID 0000.0001)     ;
(PID.TID 0000.0001) GM_BVP_ModeNumber = /* Vertical mode number for BVP wave speed */
(PID.TID 0000.0001)                       1
(PID.TID 0000.0001)     ;
(PID.TID 0000.0001) GM_BVP_cMin = /* Minimum wave speed for BVP [m/s] */
(PID.TID 0000.0001)                 1.000000000000000E-01
(PID.TID 0000.0001)     ;
(PID.TID 0000.0001) GM_useSubMeso = /* if TRUE => use Sub-Meso param. (B.Fox-Kemper) */
(PID.TID 0000.0001)                   F
(PID.TID 0000.0001)     ;
(PID.TID 0000.0001) subMeso_Ceff = /* efficiency coeff. of Mixed-Layer Eddies [-] */
(PID.TID 0000.0001)                 7.000000000000001E-02
(PID.TID 0000.0001)     ;
(PID.TID 0000.0001) subMeso_invTau = /* inverse of Sub-Meso mixing time-scale [/s] */
(PID.TID 0000.0001)                 2.000000000000000E-06
(PID.TID 0000.0001)     ;
(PID.TID 0000.0001) subMeso_LfMin = /* minimum length-scale "Lf" [m] */
(PID.TID 0000.0001)                 1.000000000000000E+03
(PID.TID 0000.0001)     ;
(PID.TID 0000.0001) subMeso_Lmax = /* maximum grid-scale length [m] */
(PID.TID 0000.0001)                 1.100000000000000E+05
(PID.TID 0000.0001)     ;
(PID.TID 0000.0001) BBL_CHECK: #define BBL
(PID.TID 0000.0001) bbl_wvel = /* vertical entrainment (m/s) */
(PID.TID 0000.0001)                 1.000000000000000E-05
(PID.TID 0000.0001)     ;
(PID.TID 0000.0001) bbl_hvel = /* horizontal velocity (m/s) */
(PID.TID 0000.0001)                 1.000000000000000E+00
(PID.TID 0000.0001)     ;
(PID.TID 0000.0001) bbl_initEta = /* default thickness (m) */
(PID.TID 0000.0001)                 2.000000000000000E+01
(PID.TID 0000.0001)     ;
(PID.TID 0000.0001) GAD_CHECK: #define ALLOW_GENERIC_ADVDIFF
(PID.TID 0000.0001) // =======================================================
(PID.TID 0000.0001) // Check Model config. (CONFIG_CHECK):
(PID.TID 0000.0001) // CONFIG_CHECK : Normal End
(PID.TID 0000.0001) // =======================================================
(PID.TID 0000.0001) 
(PID.TID 0000.0001)  MDS_READ_FIELD: opening global file: lev_t.bin
(PID.TID 0000.0001)  MDS_READ_FIELD: opening global file: lev_s.bin
(PID.TID 0000.0001) Start initial hydrostatic pressure computation
(PID.TID 0000.0001) Pressure is predetermined for buoyancyRelation OCEANIC
(PID.TID 0000.0001) 
(PID.TID 0000.0001)  write diagnostics summary to file ioUnit:      6
Iter.Nb:         0 ; Time(s):  0.0000000000000E+00
------------------------------------------------------------------------
2D/3D diagnostics: Number of lists:     4
------------------------------------------------------------------------
listId=    1 ; file name: diagsEXF
 nFlds, nActive,       freq     &     phase        , nLev               
    4  |    4  |   -864000.000000    432000.000000 |   1
 levels:   1
 diag# | name   |   ipt  |  iMate | kLev|   count |   mate.C|           
   194 |EXFtaux |      1 |      0 |   1 |       0 |
   195 |EXFtauy |      2 |      0 |   1 |       0 |
   193 |EXFqnet |      3 |      0 |   1 |       0 |
   204 |EXFempmr|      4 |      0 |   1 |       0 |
------------------------------------------------------------------------
listId=    2 ; file name: diagSurf
 nFlds, nActive,       freq     &     phase        , nLev               
    2  |    2  |   -864000.000000    432000.000000 |   1
 levels:   1
 diag# | name   |   ipt  |  iMate | kLev|   count |   mate.C|           
    26 |THETA   |      5 |      0 |  15 |       0 |
    27 |SALT    |     20 |      0 |  15 |       0 |
------------------------------------------------------------------------
listId=    3 ; file name: diag_vel_k2
 nFlds, nActive,       freq     &     phase        , nLev               
    2  |    2  |   -864000.000000    432000.000000 |   1
 levels:   2
 diag# | name   |   ipt  |  iMate | kLev|   count |   mate.C|           
    30 |UVEL    |     35 |     50 |  15 |       0 |       0 |
    31 |VVEL    |     50 |     35 |  15 |       0 |       0 |
------------------------------------------------------------------------
listId=    4 ; file name: FrzForcT
 nFlds, nActive,       freq     &     phase        , nLev               
    1  |    1  |    864000.000000         0.000000 |  15
 levels:   1   2   3   4   5   6   7   8   9  10  11  12  13  14  15
 diag# | name   |   ipt  |  iMate | kLev|   count |   mate.C|           
   236 |FrzForcT|     65 |      0 |  15 |       0 |
------------------------------------------------------------------------
Global & Regional Statistics diagnostics: Number of lists:     0
------------------------------------------------------------------------
(PID.TID 0000.0001) // =======================================================
(PID.TID 0000.0001) // Model current state
(PID.TID 0000.0001) // =======================================================
(PID.TID 0000.0001) 
(PID.TID 0000.0001) // =======================================================
(PID.TID 0000.0001) // Begin MONITOR dynamic field statistics
(PID.TID 0000.0001) // =======================================================
(PID.TID 0000.0001) %MON time_tsnumber                =                     0
(PID.TID 0000.0001) %MON time_secondsf                =   0.0000000000000E+00
(PID.TID 0000.0001) %MON dynstat_eta_max              =   0.0000000000000E+00
(PID.TID 0000.0001) %MON dynstat_eta_min              =   0.0000000000000E+00
(PID.TID 0000.0001) %MON dynstat_eta_mean             =   0.0000000000000E+00
(PID.TID 0000.0001) %MON dynstat_eta_sd               =   0.0000000000000E+00
(PID.TID 0000.0001) %MON dynstat_eta_del2             =   0.0000000000000E+00
(PID.TID 0000.0001) %MON dynstat_uvel_max             =   0.0000000000000E+00
(PID.TID 0000.0001) %MON dynstat_uvel_min             =   0.0000000000000E+00
(PID.TID 0000.0001) %MON dynstat_uvel_mean            =   0.0000000000000E+00
(PID.TID 0000.0001) %MON dynstat_uvel_sd              =   0.0000000000000E+00
(PID.TID 0000.0001) %MON dynstat_uvel_del2            =   0.0000000000000E+00
(PID.TID 0000.0001) %MON dynstat_vvel_max             =   0.0000000000000E+00
(PID.TID 0000.0001) %MON dynstat_vvel_min             =   0.0000000000000E+00
(PID.TID 0000.0001) %MON dynstat_vvel_mean            =   0.0000000000000E+00
(PID.TID 0000.0001) %MON dynstat_vvel_sd              =   0.0000000000000E+00
(PID.TID 0000.0001) %MON dynstat_vvel_del2            =   0.0000000000000E+00
(PID.TID 0000.0001) %MON dynstat_wvel_max             =  -0.0000000000000E+00
(PID.TID 0000.0001) %MON dynstat_wvel_min             =  -0.0000000000000E+00
(PID.TID 0000.0001) %MON dynstat_wvel_mean            =   0.0000000000000E+00
(PID.TID 0000.0001) %MON dynstat_wvel_sd              =   0.0000000000000E+00
(PID.TID 0000.0001) %MON dynstat_wvel_del2            =   0.0000000000000E+00
(PID.TID 0000.0001) %MON dynstat_theta_max            =   2.9733388900757E+01
(PID.TID 0000.0001) %MON dynstat_theta_min            =  -1.9000000000000E+00
(PID.TID 0000.0001) %MON dynstat_theta_mean           =   3.6197074666131E+00
(PID.TID 0000.0001) %MON dynstat_theta_sd             =   4.4174614518570E+00
(PID.TID 0000.0001) %MON dynstat_theta_del2           =   5.6229722638208E-03
(PID.TID 0000.0001) %MON dynstat_salt_max             =   3.7475627899170E+01
(PID.TID 0000.0001) %MON dynstat_salt_min             =   2.9752769470215E+01
(PID.TID 0000.0001) %MON dynstat_salt_mean            =   3.4718006161477E+01
(PID.TID 0000.0001) %MON dynstat_salt_sd              =   2.9628819587991E-01
(PID.TID 0000.0001) %MON dynstat_salt_del2            =   1.0127003139695E-03
(PID.TID 0000.0001) %MON forcing_qnet_max             =   0.0000000000000E+00
(PID.TID 0000.0001) %MON forcing_qnet_min             =   0.0000000000000E+00
(PID.TID 0000.0001) %MON forcing_qnet_mean            =   0.0000000000000E+00
(PID.TID 0000.0001) %MON forcing_qnet_sd              =   0.0000000000000E+00
(PID.TID 0000.0001) %MON forcing_qnet_del2            =   0.0000000000000E+00
(PID.TID 0000.0001) %MON forcing_qsw_max              =   0.0000000000000E+00
(PID.TID 0000.0001) %MON forcing_qsw_min              =   0.0000000000000E+00
(PID.TID 0000.0001) %MON forcing_qsw_mean             =   0.0000000000000E+00
(PID.TID 0000.0001) %MON forcing_qsw_sd               =   0.0000000000000E+00
(PID.TID 0000.0001) %MON forcing_qsw_del2             =   0.0000000000000E+00
(PID.TID 0000.0001) %MON forcing_empmr_max            =   0.0000000000000E+00
(PID.TID 0000.0001) %MON forcing_empmr_min            =   0.0000000000000E+00
(PID.TID 0000.0001) %MON forcing_empmr_mean           =   0.0000000000000E+00
(PID.TID 0000.0001) %MON forcing_empmr_sd             =   0.0000000000000E+00
(PID.TID 0000.0001) %MON forcing_empmr_del2           =   0.0000000000000E+00
(PID.TID 0000.0001) %MON forcing_fu_max               =   0.0000000000000E+00
(PID.TID 0000.0001) %MON forcing_fu_min               =   0.0000000000000E+00
(PID.TID 0000.0001) %MON forcing_fu_mean              =   0.0000000000000E+00
(PID.TID 0000.0001) %MON forcing_fu_sd                =   0.0000000000000E+00
(PID.TID 0000.0001) %MON forcing_fu_del2              =   0.0000000000000E+00
(PID.TID 0000.0001) %MON forcing_fv_max               =   0.0000000000000E+00
(PID.TID 0000.0001) %MON forcing_fv_min               =   0.0000000000000E+00
(PID.TID 0000.0001) %MON forcing_fv_mean              =   0.0000000000000E+00
(PID.TID 0000.0001) %MON forcing_fv_sd                =   0.0000000000000E+00
(PID.TID 0000.0001) %MON forcing_fv_del2              =   0.0000000000000E+00
(PID.TID 0000.0001) %MON trAdv_CFL_u_max              =   0.0000000000000E+00
(PID.TID 0000.0001) %MON trAdv_CFL_v_max              =   0.0000000000000E+00
(PID.TID 0000.0001) %MON trAdv_CFL_w_max              =   0.0000000000000E+00
(PID.TID 0000.0001) %MON advcfl_uvel_max              =   0.0000000000000E+00
(PID.TID 0000.0001) %MON advcfl_vvel_max              =   0.0000000000000E+00
(PID.TID 0000.0001) %MON advcfl_wvel_max              =   0.0000000000000E+00
(PID.TID 0000.0001) %MON advcfl_W_hf_max              =   0.0000000000000E+00
(PID.TID 0000.0001) %MON pe_b_mean                    =   0.0000000000000E+00
(PID.TID 0000.0001) %MON ke_max                       =   0.0000000000000E+00
(PID.TID 0000.0001) %MON ke_mean                      =   0.0000000000000E+00
(PID.TID 0000.0001) %MON ke_vol                       =   1.3226782436723E+18
(PID.TID 0000.0001) %MON vort_r_min                   =   0.0000000000000E+00
(PID.TID 0000.0001) %MON vort_r_max                   =   0.0000000000000E+00
(PID.TID 0000.0001) %MON vort_a_mean                  =  -2.5205769728598E-05
(PID.TID 0000.0001) %MON vort_a_sd                    =   7.3403301351719E-05
(PID.TID 0000.0001) %MON vort_p_mean                  =  -3.1758669979760E-05
(PID.TID 0000.0001) %MON vort_p_sd                    =   1.3126616755304E-04
(PID.TID 0000.0001) %MON surfExpan_theta_mean         =   0.0000000000000E+00
(PID.TID 0000.0001) %MON surfExpan_salt_mean          =   0.0000000000000E+00
(PID.TID 0000.0001) // =======================================================
(PID.TID 0000.0001) // End MONITOR dynamic field statistics
(PID.TID 0000.0001) // =======================================================
(PID.TID 0000.0001)  EXF_SET_GEN: processing file: lev_sst.bin
(PID.TID 0000.0001)  EXF_SET_GEN:  myIter, count0, count1:         0     12      1
(PID.TID 0000.0001)  EXF_SET_GEN:  first, changed, fac:   T   F   0.500000000E+00
(PID.TID 0000.0001)  EXF_SET_GEN: it=         0 loading rec=    12 from: lev_sst.bin_1991
(PID.TID 0000.0001)  EXF_INTERP_READ: opening file: lev_sst.bin_1991
(PID.TID 0000.0001) EXF_INTERP: file="lev_sst.bin_1991", rec=    12 , x-Per,P.Sym=    T    T
(PID.TID 0000.0001) S.edge (j=-1,0,1) : proc= 0.0 0.0 0.0, yIn=  -86.000000  -82.000000  -78.000000
(PID.TID 0000.0001) N.edge (j=+0,+1,+2) proc= 0.0 0.0 0.0, yIn=   78.000000   82.000000   86.000000
(PID.TID 0000.0001)  EXF_SET_GEN: it=         0 loading rec=     1 from: lev_sst.bin_1992
(PID.TID 0000.0001)  EXF_INTERP_READ: opening file: lev_sst.bin_1992
(PID.TID 0000.0001) EXF_INTERP: file="lev_sst.bin_1992", rec=     1 , x-Per,P.Sym=    T    T
(PID.TID 0000.0001) S.edge (j=-1,0,1) : proc= 0.0 0.0 0.0, yIn=  -86.000000  -82.000000  -78.000000
(PID.TID 0000.0001) N.edge (j=+0,+1,+2) proc= 0.0 0.0 0.0, yIn=   78.000000   82.000000   86.000000
(PID.TID 0000.0001)  EXF_SET_GEN: processing file: lev_sss.bin
(PID.TID 0000.0001)  EXF_SET_GEN:  myIter, count0, count1:         0     12      1
(PID.TID 0000.0001)  EXF_SET_GEN:  first, changed, fac:   T   F   0.500000000E+00
(PID.TID 0000.0001)  EXF_SET_GEN: it=         0 loading rec=    12 from: lev_sss.bin_1991
(PID.TID 0000.0001)  EXF_INTERP_READ: opening file: lev_sss.bin_1991
(PID.TID 0000.0001) EXF_INTERP: file="lev_sss.bin_1991", rec=    12 , x-Per,P.Sym=    T    T
(PID.TID 0000.0001) S.edge (j=-1,0,1) : proc= 0.0 0.0 0.0, yIn=  -86.000000  -82.000000  -78.000000
(PID.TID 0000.0001) N.edge (j=+0,+1,+2) proc= 0.0 0.0 0.0, yIn=   78.000000   82.000000   86.000000
(PID.TID 0000.0001)  EXF_SET_GEN: it=         0 loading rec=     1 from: lev_sss.bin_1992
(PID.TID 0000.0001)  EXF_INTERP_READ: opening file: lev_sss.bin_1992
(PID.TID 0000.0001) EXF_INTERP: file="lev_sss.bin_1992", rec=     1 , x-Per,P.Sym=    T    T
(PID.TID 0000.0001) S.edge (j=-1,0,1) : proc= 0.0 0.0 0.0, yIn=  -86.000000  -82.000000  -78.000000
(PID.TID 0000.0001) N.edge (j=+0,+1,+2) proc= 0.0 0.0 0.0, yIn=   78.000000   82.000000   86.000000
(PID.TID 0000.0001)  EXF_SET_GEN: processing file: trenberth_taux.bin
(PID.TID 0000.0001)  EXF_SET_GEN:  myIter, count0, count1:         0     12      1
(PID.TID 0000.0001)  EXF_SET_GEN:  first, changed, fac:   T   F   0.500000000E+00
(PID.TID 0000.0001)  EXF_SET_GEN: it=         0 loading rec=    12 from: trenberth_taux.bin_1991
(PID.TID 0000.0001)  EXF_INTERP_READ: opening file: trenberth_taux.bin_1991
(PID.TID 0000.0001) EXF_INTERP: file="trenberth_taux.bin_1991", rec=    12 , x-Per,P.Sym=    T    T
(PID.TID 0000.0001) S.edge (j=-1,0,1) : proc= 0.0 0.0 0.0, yIn=  -86.000000  -82.000000  -78.000000
(PID.TID 0000.0001) N.edge (j=+0,+1,+2) proc= 0.0 0.0 0.0, yIn=   78.000000   82.000000   86.000000
(PID.TID 0000.0001)  EXF_SET_GEN: it=         0 loading rec=     1 from: trenberth_taux.bin_1992
(PID.TID 0000.0001)  EXF_INTERP_READ: opening file: trenberth_taux.bin_1992
(PID.TID 0000.0001) EXF_INTERP: file="trenberth_taux.bin_1992", rec=     1 , x-Per,P.Sym=    T    T
(PID.TID 0000.0001) S.edge (j=-1,0,1) : proc= 0.0 0.0 0.0, yIn=  -86.000000  -82.000000  -78.000000
(PID.TID 0000.0001) N.edge (j=+0,+1,+2) proc= 0.0 0.0 0.0, yIn=   78.000000   82.000000   86.000000
(PID.TID 0000.0001)  EXF_SET_GEN: processing file: trenberth_tauy.bin
(PID.TID 0000.0001)  EXF_SET_GEN:  myIter, count0, count1:         0     12      1
(PID.TID 0000.0001)  EXF_SET_GEN:  first, changed, fac:   T   F   0.500000000E+00
(PID.TID 0000.0001)  EXF_SET_GEN: it=         0 loading rec=    12 from: trenberth_tauy.bin_1991
(PID.TID 0000.0001)  EXF_INTERP_READ: opening file: trenberth_tauy.bin_1991
(PID.TID 0000.0001) EXF_INTERP: file="trenberth_tauy.bin_1991", rec=    12 , x-Per,P.Sym=    T    T
(PID.TID 0000.0001) S.edge (j=-1,0,1) : proc= 0.0 0.0 0.0, yIn=  -88.000000  -84.000000  -80.000000
(PID.TID 0000.0001) N.edge (j=+0,+1,+2) proc= 0.0 0.0 0.0, yIn=   76.000000   80.000000   84.000000
(PID.TID 0000.0001)  EXF_SET_GEN: it=         0 loading rec=     1 from: trenberth_tauy.bin_1992
(PID.TID 0000.0001)  EXF_INTERP_READ: opening file: trenberth_tauy.bin_1992
(PID.TID 0000.0001) EXF_INTERP: file="trenberth_tauy.bin_1992", rec=     1 , x-Per,P.Sym=    T    T
(PID.TID 0000.0001) S.edge (j=-1,0,1) : proc= 0.0 0.0 0.0, yIn=  -88.000000  -84.000000  -80.000000
(PID.TID 0000.0001) N.edge (j=+0,+1,+2) proc= 0.0 0.0 0.0, yIn=   76.000000   80.000000   84.000000
(PID.TID 0000.0001)  EXF_SET_GEN: processing file: ncep_qnet.bin
(PID.TID 0000.0001)  EXF_SET_GEN:  myIter, count0, count1:         0     12      1
(PID.TID 0000.0001)  EXF_SET_GEN:  first, changed, fac:   T   F   0.500000000E+00
(PID.TID 0000.0001)  EXF_SET_GEN: it=         0 loading rec=    12 from: ncep_qnet.bin_1991
(PID.TID 0000.0001)  EXF_INTERP_READ: opening file: ncep_qnet.bin_1991
(PID.TID 0000.0001) EXF_INTERP: file="ncep_qnet.bin_1991", rec=    12 , x-Per,P.Sym=    T    T
(PID.TID 0000.0001) S.edge (j=-1,0,1) : proc= 0.0 0.0 0.0, yIn=  -86.000000  -82.000000  -78.000000
(PID.TID 0000.0001) N.edge (j=+0,+1,+2) proc= 0.0 0.0 0.0, yIn=   78.000000   82.000000   86.000000
(PID.TID 0000.0001)  EXF_SET_GEN: it=         0 loading rec=     1 from: ncep_qnet.bin_1992
(PID.TID 0000.0001)  EXF_INTERP_READ: opening file: ncep_qnet.bin_1992
(PID.TID 0000.0001) EXF_INTERP: file="ncep_qnet.bin_1992", rec=     1 , x-Per,P.Sym=    T    T
(PID.TID 0000.0001) S.edge (j=-1,0,1) : proc= 0.0 0.0 0.0, yIn=  -86.000000  -82.000000  -78.000000
(PID.TID 0000.0001) N.edge (j=+0,+1,+2) proc= 0.0 0.0 0.0, yIn=   78.000000   82.000000   86.000000
(PID.TID 0000.0001) // =======================================================
(PID.TID 0000.0001) // Begin MONITOR EXF statistics
(PID.TID 0000.0001) // =======================================================
(PID.TID 0000.0001) %MON exf_tsnumber                 =                     0
(PID.TID 0000.0001) %MON exf_time_sec                 =   0.0000000000000E+00
(PID.TID 0000.0001) %MON exf_ustress_max              =   2.7504746150225E-01
(PID.TID 0000.0001) %MON exf_ustress_min              =  -1.5905952523462E-01
(PID.TID 0000.0001) %MON exf_ustress_mean             =   1.5099458143023E-02
(PID.TID 0000.0001) %MON exf_ustress_sd               =   8.8585108033587E-02
(PID.TID 0000.0001) %MON exf_ustress_del2             =   6.6404043672869E-04
(PID.TID 0000.0001) %MON exf_vstress_max              =   2.0339486259036E-01
(PID.TID 0000.0001) %MON exf_vstress_min              =  -1.5535210736562E-01
(PID.TID 0000.0001) %MON exf_vstress_mean             =  -6.4896783635954E-03
(PID.TID 0000.0001) %MON exf_vstress_sd               =   4.4762215730526E-02
(PID.TID 0000.0001) %MON exf_vstress_del2             =   4.2060407074252E-04
(PID.TID 0000.0001) %MON exf_hflux_max                =   4.2589080810547E+02
(PID.TID 0000.0001) %MON exf_hflux_min                =  -1.8702698516846E+02
(PID.TID 0000.0001) %MON exf_hflux_mean               =  -1.6700205338390E+01
(PID.TID 0000.0001) %MON exf_hflux_sd                 =   1.1285666794876E+02
(PID.TID 0000.0001) %MON exf_hflux_del2               =   1.1773372383983E+00
(PID.TID 0000.0001) %MON exf_climsst_max              =   2.9561637878418E+01
(PID.TID 0000.0001) %MON exf_climsst_min              =  -1.9000000000000E+00
(PID.TID 0000.0001) %MON exf_climsst_mean             =   1.8364821435178E+01
(PID.TID 0000.0001) %MON exf_climsst_sd               =   9.2122803951938E+00
(PID.TID 0000.0001) %MON exf_climsst_del2             =   2.4303814016692E-02
(PID.TID 0000.0001) %MON exf_climsss_max              =   3.7451293945313E+01
(PID.TID 0000.0001) %MON exf_climsss_min              =   2.9661429405212E+01
(PID.TID 0000.0001) %MON exf_climsss_mean             =   3.4846753273918E+01
(PID.TID 0000.0001) %MON exf_climsss_sd               =   9.6901487505657E-01
(PID.TID 0000.0001) %MON exf_climsss_del2             =   7.0345793365991E-03
(PID.TID 0000.0001) // =======================================================
(PID.TID 0000.0001) // End MONITOR EXF statistics
(PID.TID 0000.0001) // =======================================================
(PID.TID 0000.0001) SOLVE_FOR_PRESSURE: putPmEinXvector =    F
 cg2d: Sum(rhs),rhsMax =   4.60742555219440E-15  2.53365815236497E+00
(PID.TID 0000.0001)      cg2d_init_res =   6.22518764776291E+00
(PID.TID 0000.0001)      cg2d_iters(min,last) =      -1      26
(PID.TID 0000.0001)      cg2d_last_res =   5.02260596927906E-14
(PID.TID 0000.0001) // =======================================================
(PID.TID 0000.0001) // Begin MONITOR dynamic field statistics
(PID.TID 0000.0001) // =======================================================
(PID.TID 0000.0001) %MON time_tsnumber                =                     1
(PID.TID 0000.0001) %MON time_secondsf                =   4.3200000000000E+04
(PID.TID 0000.0001) %MON dynstat_eta_max              =   1.7856792601737E-01
(PID.TID 0000.0001) %MON dynstat_eta_min              =  -1.1519610008195E-01
(PID.TID 0000.0001) %MON dynstat_eta_mean             =  -1.0773883167427E-17
(PID.TID 0000.0001) %MON dynstat_eta_sd               =   2.6330549890027E-02
(PID.TID 0000.0001) %MON dynstat_eta_del2             =   1.1739962474465E-03
(PID.TID 0000.0001) %MON dynstat_uvel_max             =   8.3420582008132E-03
(PID.TID 0000.0001) %MON dynstat_uvel_min             =  -8.9105084344499E-03
(PID.TID 0000.0001) %MON dynstat_uvel_mean            =  -3.6105404926990E-04
(PID.TID 0000.0001) %MON dynstat_uvel_sd              =   1.2324206270048E-03
(PID.TID 0000.0001) %MON dynstat_uvel_del2            =   1.1701375184118E-05
(PID.TID 0000.0001) %MON dynstat_vvel_max             =   1.8795294842838E-02
(PID.TID 0000.0001) %MON dynstat_vvel_min             =  -1.1293716034417E-02
(PID.TID 0000.0001) %MON dynstat_vvel_mean            =   9.2373633389002E-04
(PID.TID 0000.0001) %MON dynstat_vvel_sd              =   3.4432405846197E-03
(PID.TID 0000.0001) %MON dynstat_vvel_del2            =   1.5589366150165E-05
(PID.TID 0000.0001) %MON dynstat_wvel_max             =   1.5979106098211E-04
(PID.TID 0000.0001) %MON dynstat_wvel_min             =  -1.0324282167793E-04
(PID.TID 0000.0001) %MON dynstat_wvel_mean            =  -9.1013710000825E-23
(PID.TID 0000.0001) %MON dynstat_wvel_sd              =   1.6851545532444E-05
(PID.TID 0000.0001) %MON dynstat_wvel_del2            =   2.5393863567958E-07
(PID.TID 0000.0001) %MON dynstat_theta_max            =   2.9730291022209E+01
(PID.TID 0000.0001) %MON dynstat_theta_min            =  -1.9000525678019E+00
(PID.TID 0000.0001) %MON dynstat_theta_mean           =   3.6197399585378E+00
(PID.TID 0000.0001) %MON dynstat_theta_sd             =   4.4171671618634E+00
(PID.TID 0000.0001) %MON dynstat_theta_del2           =   5.6392111166465E-03
(PID.TID 0000.0001) %MON dynstat_salt_max             =   3.7470516461991E+01
(PID.TID 0000.0001) %MON dynstat_salt_min             =   2.9754192314250E+01
(PID.TID 0000.0001) %MON dynstat_salt_mean            =   3.4718006046545E+01
(PID.TID 0000.0001) %MON dynstat_salt_sd              =   2.9615165852795E-01
(PID.TID 0000.0001) %MON dynstat_salt_del2            =   1.0162892918536E-03
(PID.TID 0000.0001) %MON forcing_qnet_max             =   4.2589080810547E+02
(PID.TID 0000.0001) %MON forcing_qnet_min             =  -1.8702698516846E+02
(PID.TID 0000.0001) %MON forcing_qnet_mean            =  -1.6700205338390E+01
(PID.TID 0000.0001) %MON forcing_qnet_sd              =   1.1285666794876E+02
(PID.TID 0000.0001) %MON forcing_qnet_del2            =   9.9079877721394E-01
(PID.TID 0000.0001) %MON forcing_qsw_max              =   0.0000000000000E+00
(PID.TID 0000.0001) %MON forcing_qsw_min              =   0.0000000000000E+00
(PID.TID 0000.0001) %MON forcing_qsw_mean             =   0.0000000000000E+00
(PID.TID 0000.0001) %MON forcing_qsw_sd               =   0.0000000000000E+00
(PID.TID 0000.0001) %MON forcing_qsw_del2             =   0.0000000000000E+00
(PID.TID 0000.0001) %MON forcing_empmr_max            =   0.0000000000000E+00
(PID.TID 0000.0001) %MON forcing_empmr_min            =   0.0000000000000E+00
(PID.TID 0000.0001) %MON forcing_empmr_mean           =   0.0000000000000E+00
(PID.TID 0000.0001) %MON forcing_empmr_sd             =   0.0000000000000E+00
(PID.TID 0000.0001) %MON forcing_empmr_del2           =   0.0000000000000E+00
(PID.TID 0000.0001) %MON forcing_fu_max               =   2.7254342939705E-01
(PID.TID 0000.0001) %MON forcing_fu_min               =  -1.5819683112204E-01
(PID.TID 0000.0001) %MON forcing_fu_mean              =   1.6170461028950E-02
(PID.TID 0000.0001) %MON forcing_fu_sd                =   8.9812760419307E-02
(PID.TID 0000.0001) %MON forcing_fu_del2              =   6.3112946759237E-04
(PID.TID 0000.0001) %MON forcing_fv_max               =   1.9946160190739E-01
(PID.TID 0000.0001) %MON forcing_fv_min               =  -1.5322343428852E-01
(PID.TID 0000.0001) %MON forcing_fv_mean              =  -6.1986725562690E-03
(PID.TID 0000.0001) %MON forcing_fv_sd                =   4.3702936040168E-02
(PID.TID 0000.0001) %MON forcing_fv_del2              =   3.4235733034056E-04
(PID.TID 0000.0001) %MON trAdv_CFL_u_max              =   0.0000000000000E+00
(PID.TID 0000.0001) %MON trAdv_CFL_v_max              =   0.0000000000000E+00
(PID.TID 0000.0001) %MON trAdv_CFL_w_max              =   0.0000000000000E+00
(PID.TID 0000.0001) %MON advcfl_uvel_max              =   2.6522096376261E-03
(PID.TID 0000.0001) %MON advcfl_vvel_max              =   1.8258121738376E-03
(PID.TID 0000.0001) %MON advcfl_wvel_max              =   2.5713781346502E-01
(PID.TID 0000.0001) %MON advcfl_W_hf_max              =   1.3042175452023E-01
(PID.TID 0000.0001) %MON pe_b_mean                    =   8.8715817383897E-07
(PID.TID 0000.0001) %MON ke_max                       =   1.2389954443154E-04
(PID.TID 0000.0001) %MON ke_mean                      =   6.4549805119018E-06
(PID.TID 0000.0001) %MON ke_vol                       =   1.3226782436723E+18
(PID.TID 0000.0001) %MON vort_r_min                   =  -5.9901398426061E-08
(PID.TID 0000.0001) %MON vort_r_max                   =   6.7789694752163E-08
(PID.TID 0000.0001) %MON vort_a_mean                  =  -2.5205769395551E-05
(PID.TID 0000.0001) %MON vort_a_sd                    =   7.3403223083098E-05
(PID.TID 0000.0001) %MON vort_p_mean                  =  -3.1758669560129E-05
(PID.TID 0000.0001) %MON vort_p_sd                    =   1.3126608107829E-04
(PID.TID 0000.0001) %MON surfExpan_theta_mean         =   4.7002825013790E-05
(PID.TID 0000.0001) %MON surfExpan_salt_mean          =   3.5353786093786E-06
(PID.TID 0000.0001) // =======================================================
(PID.TID 0000.0001) // End MONITOR dynamic field statistics
(PID.TID 0000.0001) // =======================================================
(PID.TID 0000.0001)  EXF_SET_GEN: processing file: lev_sst.bin
(PID.TID 0000.0001)  EXF_SET_GEN:  myIter, count0, count1:         1     12      1
(PID.TID 0000.0001)  EXF_SET_GEN:  first, changed, fac:   F   F   0.483333333E+00
(PID.TID 0000.0001)  EXF_SET_GEN: processing file: lev_sss.bin
(PID.TID 0000.0001)  EXF_SET_GEN:  myIter, count0, count1:         1     12      1
(PID.TID 0000.0001)  EXF_SET_GEN:  first, changed, fac:   F   F   0.483333333E+00
(PID.TID 0000.0001)  EXF_SET_GEN: processing file: trenberth_taux.bin
(PID.TID 0000.0001)  EXF_SET_GEN:  myIter, count0, count1:         1     12      1
(PID.TID 0000.0001)  EXF_SET_GEN:  first, changed, fac:   F   F   0.483333333E+00
(PID.TID 0000.0001)  EXF_SET_GEN: processing file: trenberth_tauy.bin
(PID.TID 0000.0001)  EXF_SET_GEN:  myIter, count0, count1:         1     12      1
(PID.TID 0000.0001)  EXF_SET_GEN:  first, changed, fac:   F   F   0.483333333E+00
(PID.TID 0000.0001)  EXF_SET_GEN: processing file: ncep_qnet.bin
(PID.TID 0000.0001)  EXF_SET_GEN:  myIter, count0, count1:         1     12      1
(PID.TID 0000.0001)  EXF_SET_GEN:  first, changed, fac:   F   F   0.483333333E+00
(PID.TID 0000.0001) // =======================================================
(PID.TID 0000.0001) // Begin MONITOR EXF statistics
(PID.TID 0000.0001) // =======================================================
(PID.TID 0000.0001) %MON exf_tsnumber                 =                     1
(PID.TID 0000.0001) %MON exf_time_sec                 =   4.3200000000000E+04
(PID.TID 0000.0001) %MON exf_ustress_max              =   2.7485855417326E-01
(PID.TID 0000.0001) %MON exf_ustress_min              =  -1.5870550675318E-01
(PID.TID 0000.0001) %MON exf_ustress_mean             =   1.5096961172338E-02
(PID.TID 0000.0001) %MON exf_ustress_sd               =   8.8576755412896E-02
(PID.TID 0000.0001) %MON exf_ustress_del2             =   6.6447495447352E-04
(PID.TID 0000.0001) %MON exf_vstress_max              =   2.0409876147751E-01
(PID.TID 0000.0001) %MON exf_vstress_min              =  -1.5556951857870E-01
(PID.TID 0000.0001) %MON exf_vstress_mean             =  -6.4557491228010E-03
(PID.TID 0000.0001) %MON exf_vstress_sd               =   4.4809742503209E-02
(PID.TID 0000.0001) %MON exf_vstress_del2             =   4.2036257262331E-04
(PID.TID 0000.0001) %MON exf_hflux_max                =   4.2641490173340E+02
(PID.TID 0000.0001) %MON exf_hflux_min                =  -1.8679340387980E+02
(PID.TID 0000.0001) %MON exf_hflux_mean               =  -1.6693949360479E+01
(PID.TID 0000.0001) %MON exf_hflux_sd                 =   1.1274774925900E+02
(PID.TID 0000.0001) %MON exf_hflux_del2               =   1.1772920631939E+00
(PID.TID 0000.0001) %MON exf_climsst_max              =   2.9553610674540E+01
(PID.TID 0000.0001) %MON exf_climsst_min              =  -1.9000000000000E+00
(PID.TID 0000.0001) %MON exf_climsst_mean             =   1.8368804810499E+01
(PID.TID 0000.0001) %MON exf_climsst_sd               =   9.2102881117028E+00
(PID.TID 0000.0001) %MON exf_climsst_del2             =   2.4265999598468E-02
(PID.TID 0000.0001) %MON exf_climsss_max              =   3.7452105077108E+01
(PID.TID 0000.0001) %MON exf_climsss_min              =   2.9664474074046E+01
(PID.TID 0000.0001) %MON exf_climsss_mean             =   3.4846859007294E+01
(PID.TID 0000.0001) %MON exf_climsss_sd               =   9.6850594829584E-01
(PID.TID 0000.0001) %MON exf_climsss_del2             =   7.0274468011122E-03
(PID.TID 0000.0001) // =======================================================
(PID.TID 0000.0001) // End MONITOR EXF statistics
(PID.TID 0000.0001) // =======================================================
 cg2d: Sum(rhs),rhsMax =   5.05429031960603E-14  5.04328788487890E+00
(PID.TID 0000.0001)      cg2d_init_res =   3.38571267497447E+00
(PID.TID 0000.0001)      cg2d_iters(min,last) =      -1      26
(PID.TID 0000.0001)      cg2d_last_res =   3.25986532349026E-14
(PID.TID 0000.0001) // =======================================================
(PID.TID 0000.0001) // Begin MONITOR dynamic field statistics
(PID.TID 0000.0001) // =======================================================
(PID.TID 0000.0001) %MON time_tsnumber                =                     2
(PID.TID 0000.0001) %MON time_secondsf                =   8.6400000000000E+04
(PID.TID 0000.0001) %MON dynstat_eta_max              =   3.7915296865314E-01
(PID.TID 0000.0001) %MON dynstat_eta_min              =  -2.5419819505330E-01
(PID.TID 0000.0001) %MON dynstat_eta_mean             =  -2.7188533601465E-17
(PID.TID 0000.0001) %MON dynstat_eta_sd               =   6.0698790563740E-02
(PID.TID 0000.0001) %MON dynstat_eta_del2             =   2.2978517785820E-03
(PID.TID 0000.0001) %MON dynstat_uvel_max             =   1.9100811905852E-02
(PID.TID 0000.0001) %MON dynstat_uvel_min             =  -1.7217288243622E-02
(PID.TID 0000.0001) %MON dynstat_uvel_mean            =  -8.9664194318283E-04
(PID.TID 0000.0001) %MON dynstat_uvel_sd              =   2.1424794690790E-03
(PID.TID 0000.0001) %MON dynstat_uvel_del2            =   2.3261937158422E-05
(PID.TID 0000.0001) %MON dynstat_vvel_max             =   3.4025780592804E-02
(PID.TID 0000.0001) %MON dynstat_vvel_min             =  -1.8116089859851E-02
(PID.TID 0000.0001) %MON dynstat_vvel_mean            =   1.7894855689558E-03
(PID.TID 0000.0001) %MON dynstat_vvel_sd              =   6.2759691600673E-03
(PID.TID 0000.0001) %MON dynstat_vvel_del2            =   2.9017653178639E-05
(PID.TID 0000.0001) %MON dynstat_wvel_max             =   2.0933796245700E-04
(PID.TID 0000.0001) %MON dynstat_wvel_min             =  -1.4797612951136E-04
(PID.TID 0000.0001) %MON dynstat_wvel_mean            =  -9.1013710000825E-23
(PID.TID 0000.0001) %MON dynstat_wvel_sd              =   2.4341113956783E-05
(PID.TID 0000.0001) %MON dynstat_wvel_del2            =   2.9285538043579E-07
(PID.TID 0000.0001) %MON dynstat_theta_max            =   2.9678784594958E+01
(PID.TID 0000.0001) %MON dynstat_theta_min            =  -1.9016546498575E+00
(PID.TID 0000.0001) %MON dynstat_theta_mean           =   3.6189252225734E+00
(PID.TID 0000.0001) %MON dynstat_theta_sd             =   4.4153471058597E+00
(PID.TID 0000.0001) %MON dynstat_theta_del2           =   5.5255752546016E-03
(PID.TID 0000.0001) %MON dynstat_salt_max             =   3.7465157945631E+01
(PID.TID 0000.0001) %MON dynstat_salt_min             =   2.9756629991559E+01
(PID.TID 0000.0001) %MON dynstat_salt_mean            =   3.4717942212203E+01
(PID.TID 0000.0001) %MON dynstat_salt_sd              =   2.9608546322043E-01
(PID.TID 0000.0001) %MON dynstat_salt_del2            =   1.0219369406799E-03
(PID.TID 0000.0001) %MON forcing_qnet_max             =   4.2641490173340E+02
(PID.TID 0000.0001) %MON forcing_qnet_min             =  -1.8679340387980E+02
(PID.TID 0000.0001) %MON forcing_qnet_mean            =  -1.6693949360479E+01
(PID.TID 0000.0001) %MON forcing_qnet_sd              =   1.1274774925900E+02
(PID.TID 0000.0001) %MON forcing_qnet_del2            =   9.9129556347980E-01
(PID.TID 0000.0001) %MON forcing_qsw_max              =   0.0000000000000E+00
(PID.TID 0000.0001) %MON forcing_qsw_min              =   0.0000000000000E+00
(PID.TID 0000.0001) %MON forcing_qsw_mean             =   0.0000000000000E+00
(PID.TID 0000.0001) %MON forcing_qsw_sd               =   0.0000000000000E+00
(PID.TID 0000.0001) %MON forcing_qsw_del2             =   0.0000000000000E+00
(PID.TID 0000.0001) %MON forcing_empmr_max            =   0.0000000000000E+00
(PID.TID 0000.0001) %MON forcing_empmr_min            =   0.0000000000000E+00
(PID.TID 0000.0001) %MON forcing_empmr_mean           =   0.0000000000000E+00
(PID.TID 0000.0001) %MON forcing_empmr_sd             =   0.0000000000000E+00
(PID.TID 0000.0001) %MON forcing_empmr_del2           =   0.0000000000000E+00
(PID.TID 0000.0001) %MON forcing_fu_max               =   2.7194796828553E-01
(PID.TID 0000.0001) %MON forcing_fu_min               =  -1.5841691407065E-01
(PID.TID 0000.0001) %MON forcing_fu_mean              =   1.6166366139510E-02
(PID.TID 0000.0001) %MON forcing_fu_sd                =   8.9804080125068E-02
(PID.TID 0000.0001) %MON forcing_fu_del2              =   6.3169415627387E-04
(PID.TID 0000.0001) %MON forcing_fv_max               =   1.9984716796316E-01
(PID.TID 0000.0001) %MON forcing_fv_min               =  -1.5380024643964E-01
(PID.TID 0000.0001) %MON forcing_fv_mean              =  -6.1630716355062E-03
(PID.TID 0000.0001) %MON forcing_fv_sd                =   4.3753566373356E-02
(PID.TID 0000.0001) %MON forcing_fv_del2              =   3.4240847200396E-04
(PID.TID 0000.0001) %MON trAdv_CFL_u_max              =   2.8604260088635E-03
(PID.TID 0000.0001) %MON trAdv_CFL_v_max              =   1.9270644571569E-03
(PID.TID 0000.0001) %MON trAdv_CFL_w_max              =   1.2856890673251E-01
(PID.TID 0000.0001) %MON advcfl_uvel_max              =   4.6878091057318E-03
(PID.TID 0000.0001) %MON advcfl_vvel_max              =   3.3053317306346E-03
(PID.TID 0000.0001) %MON advcfl_wvel_max              =   2.8884246139551E-01
(PID.TID 0000.0001) %MON advcfl_W_hf_max              =   1.4979645743548E-01
(PID.TID 0000.0001) %MON pe_b_mean                    =   4.7145611778779E-06
(PID.TID 0000.0001) %MON ke_max                       =   4.1178259861167E-04
(PID.TID 0000.0001) %MON ke_mean                      =   2.1571199447632E-05
(PID.TID 0000.0001) %MON ke_vol                       =   1.3226782436723E+18
(PID.TID 0000.0001) %MON vort_r_min                   =  -1.0551944119383E-07
(PID.TID 0000.0001) %MON vort_r_max                   =   1.2813897449757E-07
(PID.TID 0000.0001) %MON vort_a_mean                  =  -2.5205769320713E-05
(PID.TID 0000.0001) %MON vort_a_sd                    =   7.3403113119109E-05
(PID.TID 0000.0001) %MON vort_p_mean                  =  -3.1758669465835E-05
(PID.TID 0000.0001) %MON vort_p_sd                    =   1.3126588862579E-04
(PID.TID 0000.0001) %MON surfExpan_theta_mean         =   8.4306424260699E-05
(PID.TID 0000.0001) %MON surfExpan_salt_mean          =   6.7146144191522E-06
(PID.TID 0000.0001) // =======================================================
(PID.TID 0000.0001) // End MONITOR dynamic field statistics
(PID.TID 0000.0001) // =======================================================
(PID.TID 0000.0001)  EXF_SET_GEN: processing file: lev_sst.bin
(PID.TID 0000.0001)  EXF_SET_GEN:  myIter, count0, count1:         2     12      1
(PID.TID 0000.0001)  EXF_SET_GEN:  first, changed, fac:   F   F   0.466666667E+00
(PID.TID 0000.0001)  EXF_SET_GEN: processing file: lev_sss.bin
(PID.TID 0000.0001)  EXF_SET_GEN:  myIter, count0, count1:         2     12      1
(PID.TID 0000.0001)  EXF_SET_GEN:  first, changed, fac:   F   F   0.466666667E+00
(PID.TID 0000.0001)  EXF_SET_GEN: processing file: trenberth_taux.bin
(PID.TID 0000.0001)  EXF_SET_GEN:  myIter, count0, count1:         2     12      1
(PID.TID 0000.0001)  EXF_SET_GEN:  first, changed, fac:   F   F   0.466666667E+00
(PID.TID 0000.0001)  EXF_SET_GEN: processing file: trenberth_tauy.bin
(PID.TID 0000.0001)  EXF_SET_GEN:  myIter, count0, count1:         2     12      1
(PID.TID 0000.0001)  EXF_SET_GEN:  first, changed, fac:   F   F   0.466666667E+00
(PID.TID 0000.0001)  EXF_SET_GEN: processing file: ncep_qnet.bin
(PID.TID 0000.0001)  EXF_SET_GEN:  myIter, count0, count1:         2     12      1
(PID.TID 0000.0001)  EXF_SET_GEN:  first, changed, fac:   F   F   0.466666667E+00
(PID.TID 0000.0001) // =======================================================
(PID.TID 0000.0001) // Begin MONITOR EXF statistics
(PID.TID 0000.0001) // =======================================================
(PID.TID 0000.0001) %MON exf_tsnumber                 =                     2
(PID.TID 0000.0001) %MON exf_time_sec                 =   8.6400000000000E+04
(PID.TID 0000.0001) %MON exf_ustress_max              =   2.7466964684427E-01
(PID.TID 0000.0001) %MON exf_ustress_min              =  -1.5900864973664E-01
(PID.TID 0000.0001) %MON exf_ustress_mean             =   1.5094464201653E-02
(PID.TID 0000.0001) %MON exf_ustress_sd               =   8.8571064614761E-02
(PID.TID 0000.0001) %MON exf_ustress_del2             =   6.6502990349232E-04
(PID.TID 0000.0001) %MON exf_vstress_max              =   2.0480266036466E-01
(PID.TID 0000.0001) %MON exf_vstress_min              =  -1.5578692979179E-01
(PID.TID 0000.0001) %MON exf_vstress_mean             =  -6.4218198820067E-03
(PID.TID 0000.0001) %MON exf_vstress_sd               =   4.4860984558321E-02
(PID.TID 0000.0001) %MON exf_vstress_del2             =   4.2021365946479E-04
(PID.TID 0000.0001) %MON exf_hflux_max                =   4.2693899536133E+02
(PID.TID 0000.0001) %MON exf_hflux_min                =  -1.8655982259115E+02
(PID.TID 0000.0001) %MON exf_hflux_mean               =  -1.6687693382567E+01
(PID.TID 0000.0001) %MON exf_hflux_sd                 =   1.1263946608433E+02
(PID.TID 0000.0001) %MON exf_hflux_del2               =   1.1772857768270E+00
(PID.TID 0000.0001) %MON exf_climsst_max              =   2.9545583470662E+01
(PID.TID 0000.0001) %MON exf_climsst_min              =  -1.9000000000000E+00
(PID.TID 0000.0001) %MON exf_climsst_mean             =   1.8372789410019E+01
(PID.TID 0000.0001) %MON exf_climsst_sd               =   9.2083573552507E+00
(PID.TID 0000.0001) %MON exf_climsst_del2             =   2.4237864502998E-02
(PID.TID 0000.0001) %MON exf_climsss_max              =   3.7452916208903E+01
(PID.TID 0000.0001) %MON exf_climsss_min              =   2.9667518742879E+01
(PID.TID 0000.0001) %MON exf_climsss_mean             =   3.4846964740671E+01
(PID.TID 0000.0001) %MON exf_climsss_sd               =   9.6801910870208E-01
(PID.TID 0000.0001) %MON exf_climsss_del2             =   7.0233043940185E-03
(PID.TID 0000.0001) // =======================================================
(PID.TID 0000.0001) // End MONITOR EXF statistics
(PID.TID 0000.0001) // =======================================================
 cg2d: Sum(rhs),rhsMax =   6.62178645249867E-14  6.30278719424527E+00
(PID.TID 0000.0001)      cg2d_init_res =   2.19586422919991E+00
(PID.TID 0000.0001)      cg2d_iters(min,last) =      -1      26
(PID.TID 0000.0001)      cg2d_last_res =   2.87680006908547E-14
(PID.TID 0000.0001) // =======================================================
(PID.TID 0000.0001) // Begin MONITOR dynamic field statistics
(PID.TID 0000.0001) // =======================================================
(PID.TID 0000.0001) %MON time_tsnumber                =                     3
(PID.TID 0000.0001) %MON time_secondsf                =   1.2960000000000E+05
(PID.TID 0000.0001) %MON dynstat_eta_max              =   5.1352125424363E-01
(PID.TID 0000.0001) %MON dynstat_eta_min              =  -3.8372245394371E-01
(PID.TID 0000.0001) %MON dynstat_eta_mean             =  -4.0003635152607E-17
(PID.TID 0000.0001) %MON dynstat_eta_sd               =   9.3230637253536E-02
(PID.TID 0000.0001) %MON dynstat_eta_del2             =   2.8481405442619E-03
(PID.TID 0000.0001) %MON dynstat_uvel_max             =   3.0972129328754E-02
(PID.TID 0000.0001) %MON dynstat_uvel_min             =  -3.0201905310305E-02
(PID.TID 0000.0001) %MON dynstat_uvel_mean            =  -1.5743595284875E-03
(PID.TID 0000.0001) %MON dynstat_uvel_sd              =   3.0396127947109E-03
(PID.TID 0000.0001) %MON dynstat_uvel_del2            =   3.5931375734612E-05
(PID.TID 0000.0001) %MON dynstat_vvel_max             =   4.5126883821316E-02
(PID.TID 0000.0001) %MON dynstat_vvel_min             =  -2.4238219450876E-02
(PID.TID 0000.0001) %MON dynstat_vvel_mean            =   2.5758067043543E-03
(PID.TID 0000.0001) %MON dynstat_vvel_sd              =   8.5723311312367E-03
(PID.TID 0000.0001) %MON dynstat_vvel_del2            =   4.4352296383800E-05
(PID.TID 0000.0001) %MON dynstat_wvel_max             =   1.9630518138136E-04
(PID.TID 0000.0001) %MON dynstat_wvel_min             =  -1.6677745380354E-04
(PID.TID 0000.0001) %MON dynstat_wvel_mean            =   7.3398153226472E-24
(PID.TID 0000.0001) %MON dynstat_wvel_sd              =   2.6777776212446E-05
(PID.TID 0000.0001) %MON dynstat_wvel_del2            =   2.5540067538071E-07
(PID.TID 0000.0001) %MON dynstat_theta_max            =   2.9642009519024E+01
(PID.TID 0000.0001) %MON dynstat_theta_min            =  -1.9090124107953E+00
(PID.TID 0000.0001) %MON dynstat_theta_mean           =   3.6177555542945E+00
(PID.TID 0000.0001) %MON dynstat_theta_sd             =   4.4129140133362E+00
(PID.TID 0000.0001) %MON dynstat_theta_del2           =   5.4244048251194E-03
(PID.TID 0000.0001) %MON dynstat_salt_max             =   3.7460963226207E+01
(PID.TID 0000.0001) %MON dynstat_salt_min             =   2.9759518003036E+01
(PID.TID 0000.0001) %MON dynstat_salt_mean            =   3.4717844958146E+01
(PID.TID 0000.0001) %MON dynstat_salt_sd              =   2.9609987754366E-01
(PID.TID 0000.0001) %MON dynstat_salt_del2            =   1.0192716920292E-03
(PID.TID 0000.0001) %MON forcing_qnet_max             =   4.2693899536133E+02
(PID.TID 0000.0001) %MON forcing_qnet_min             =  -1.8655982259115E+02
(PID.TID 0000.0001) %MON forcing_qnet_mean            =  -1.6687693382567E+01
(PID.TID 0000.0001) %MON forcing_qnet_sd              =   1.1263946608433E+02
(PID.TID 0000.0001) %MON forcing_qnet_del2            =   9.9183674388333E-01
(PID.TID 0000.0001) %MON forcing_qsw_max              =   0.0000000000000E+00
(PID.TID 0000.0001) %MON forcing_qsw_min              =   0.0000000000000E+00
(PID.TID 0000.0001) %MON forcing_qsw_mean             =   0.0000000000000E+00
(PID.TID 0000.0001) %MON forcing_qsw_sd               =   0.0000000000000E+00
(PID.TID 0000.0001) %MON forcing_qsw_del2             =   0.0000000000000E+00
(PID.TID 0000.0001) %MON forcing_empmr_max            =   0.0000000000000E+00
(PID.TID 0000.0001) %MON forcing_empmr_min            =   0.0000000000000E+00
(PID.TID 0000.0001) %MON forcing_empmr_mean           =   0.0000000000000E+00
(PID.TID 0000.0001) %MON forcing_empmr_sd             =   0.0000000000000E+00
(PID.TID 0000.0001) %MON forcing_empmr_del2           =   0.0000000000000E+00
(PID.TID 0000.0001) %MON forcing_fu_max               =   2.7135250717402E-01
(PID.TID 0000.0001) %MON forcing_fu_min               =  -1.5863699701925E-01
(PID.TID 0000.0001) %MON forcing_fu_mean              =   1.6162271250069E-02
(PID.TID 0000.0001) %MON forcing_fu_sd                =   8.9798034202398E-02
(PID.TID 0000.0001) %MON forcing_fu_del2              =   6.3237408407648E-04
(PID.TID 0000.0001) %MON forcing_fv_max               =   2.0023273401894E-01
(PID.TID 0000.0001) %MON forcing_fv_min               =  -1.5437705859076E-01
(PID.TID 0000.0001) %MON forcing_fv_mean              =  -6.1274707147435E-03
(PID.TID 0000.0001) %MON forcing_fv_sd                =   4.3807747635033E-02
(PID.TID 0000.0001) %MON forcing_fv_del2              =   3.4254228945357E-04
(PID.TID 0000.0001) %MON trAdv_CFL_u_max              =   5.8436125479960E-03
(PID.TID 0000.0001) %MON trAdv_CFL_v_max              =   3.4886322856699E-03
(PID.TID 0000.0001) %MON trAdv_CFL_w_max              =   1.4442123069775E-01
(PID.TID 0000.0001) %MON advcfl_uvel_max              =   5.8964422405767E-03
(PID.TID 0000.0001) %MON advcfl_vvel_max              =   4.3837148891392E-03
(PID.TID 0000.0001) %MON advcfl_wvel_max              =   2.1005698446075E-01
(PID.TID 0000.0001) %MON advcfl_W_hf_max              =   1.0731413746855E-01
(PID.TID 0000.0001) %MON pe_b_mean                    =   1.1122399894742E-05
(PID.TID 0000.0001) %MON ke_max                       =   7.8757103344745E-04
(PID.TID 0000.0001) %MON ke_mean                      =   4.1292817864451E-05
(PID.TID 0000.0001) %MON ke_vol                       =   1.3226782436723E+18
(PID.TID 0000.0001) %MON vort_r_min                   =  -1.5697664621405E-07
(PID.TID 0000.0001) %MON vort_r_max                   =   1.8258140071132E-07
(PID.TID 0000.0001) %MON vort_a_mean                  =  -2.5205769332589E-05
(PID.TID 0000.0001) %MON vort_a_sd                    =   7.3402978978537E-05
(PID.TID 0000.0001) %MON vort_p_mean                  =  -3.1758669480799E-05
(PID.TID 0000.0001) %MON vort_p_sd                    =   1.3126561179462E-04
(PID.TID 0000.0001) %MON surfExpan_theta_mean         =   1.1279081766795E-04
(PID.TID 0000.0001) %MON surfExpan_salt_mean          =   9.3001814497263E-06
(PID.TID 0000.0001) // =======================================================
(PID.TID 0000.0001) // End MONITOR dynamic field statistics
(PID.TID 0000.0001) // =======================================================
(PID.TID 0000.0001)  EXF_SET_GEN: processing file: lev_sst.bin
(PID.TID 0000.0001)  EXF_SET_GEN:  myIter, count0, count1:         3     12      1
(PID.TID 0000.0001)  EXF_SET_GEN:  first, changed, fac:   F   F   0.450000000E+00
(PID.TID 0000.0001)  EXF_SET_GEN: processing file: lev_sss.bin
(PID.TID 0000.0001)  EXF_SET_GEN:  myIter, count0, count1:         3     12      1
(PID.TID 0000.0001)  EXF_SET_GEN:  first, changed, fac:   F   F   0.450000000E+00
(PID.TID 0000.0001)  EXF_SET_GEN: processing file: trenberth_taux.bin
(PID.TID 0000.0001)  EXF_SET_GEN:  myIter, count0, count1:         3     12      1
(PID.TID 0000.0001)  EXF_SET_GEN:  first, changed, fac:   F   F   0.450000000E+00
(PID.TID 0000.0001)  EXF_SET_GEN: processing file: trenberth_tauy.bin
(PID.TID 0000.0001)  EXF_SET_GEN:  myIter, count0, count1:         3     12      1
(PID.TID 0000.0001)  EXF_SET_GEN:  first, changed, fac:   F   F   0.450000000E+00
(PID.TID 0000.0001)  EXF_SET_GEN: processing file: ncep_qnet.bin
(PID.TID 0000.0001)  EXF_SET_GEN:  myIter, count0, count1:         3     12      1
(PID.TID 0000.0001)  EXF_SET_GEN:  first, changed, fac:   F   F   0.450000000E+00
(PID.TID 0000.0001) // =======================================================
(PID.TID 0000.0001) // Begin MONITOR EXF statistics
(PID.TID 0000.0001) // =======================================================
(PID.TID 0000.0001) %MON exf_tsnumber                 =                     3
(PID.TID 0000.0001) %MON exf_time_sec                 =   1.2960000000000E+05
(PID.TID 0000.0001) %MON exf_ustress_max              =   2.7448073951527E-01
(PID.TID 0000.0001) %MON exf_ustress_min              =  -1.5931179272011E-01
(PID.TID 0000.0001) %MON exf_ustress_mean             =   1.5091967230968E-02
(PID.TID 0000.0001) %MON exf_ustress_sd               =   8.8568036152276E-02
(PID.TID 0000.0001) %MON exf_ustress_del2             =   6.6570498260122E-04
(PID.TID 0000.0001) %MON exf_vstress_max              =   2.0550655925181E-01
(PID.TID 0000.0001) %MON exf_vstress_min              =  -1.5600434100488E-01
(PID.TID 0000.0001) %MON exf_vstress_mean             =  -6.3878906412123E-03
(PID.TID 0000.0001) %MON exf_vstress_sd               =   4.4915929180196E-02
(PID.TID 0000.0001) %MON exf_vstress_del2             =   4.2015742970951E-04
(PID.TID 0000.0001) %MON exf_hflux_max                =   4.2746308898926E+02
(PID.TID 0000.0001) %MON exf_hflux_min                =  -1.8632624130249E+02
(PID.TID 0000.0001) %MON exf_hflux_mean               =  -1.6681437404656E+01
(PID.TID 0000.0001) %MON exf_hflux_sd                 =   1.1253182025933E+02
(PID.TID 0000.0001) %MON exf_hflux_del2               =   1.1773183799204E+00
(PID.TID 0000.0001) %MON exf_climsst_max              =   2.9537556266785E+01
(PID.TID 0000.0001) %MON exf_climsst_min              =  -1.9000000000000E+00
(PID.TID 0000.0001) %MON exf_climsst_mean             =   1.8376777308393E+01
(PID.TID 0000.0001) %MON exf_climsst_sd               =   9.2064836015516E+00
(PID.TID 0000.0001) %MON exf_climsst_del2             =   2.4219456357172E-02
(PID.TID 0000.0001) %MON exf_climsss_max              =   3.7453727340698E+01
(PID.TID 0000.0001) %MON exf_climsss_min              =   2.9670563411713E+01
(PID.TID 0000.0001) %MON exf_climsss_mean             =   3.4847070474047E+01
(PID.TID 0000.0001) %MON exf_climsss_sd               =   9.6755438961577E-01
(PID.TID 0000.0001) %MON exf_climsss_del2             =   7.0221574069968E-03
(PID.TID 0000.0001) // =======================================================
(PID.TID 0000.0001) // End MONITOR EXF statistics
(PID.TID 0000.0001) // =======================================================
 cg2d: Sum(rhs),rhsMax =   9.20929998926567E-14  6.73016682746030E+00
(PID.TID 0000.0001)      cg2d_init_res =   1.88474399158486E+00
(PID.TID 0000.0001)      cg2d_iters(min,last) =      -1      26
(PID.TID 0000.0001)      cg2d_last_res =   2.57585632871087E-14
(PID.TID 0000.0001) // =======================================================
(PID.TID 0000.0001) // Begin MONITOR dynamic field statistics
(PID.TID 0000.0001) // =======================================================
(PID.TID 0000.0001) %MON time_tsnumber                =                     4
(PID.TID 0000.0001) %MON time_secondsf                =   1.7280000000000E+05
(PID.TID 0000.0001) %MON dynstat_eta_max              =   5.8980048598061E-01
(PID.TID 0000.0001) %MON dynstat_eta_min              =  -4.9950439089839E-01
(PID.TID 0000.0001) %MON dynstat_eta_mean             =  -2.6008730601518E-17
(PID.TID 0000.0001) %MON dynstat_eta_sd               =   1.2310610602373E-01
(PID.TID 0000.0001) %MON dynstat_eta_del2             =   2.9680051771928E-03
(PID.TID 0000.0001) %MON dynstat_uvel_max             =   4.3075926478281E-02
(PID.TID 0000.0001) %MON dynstat_uvel_min             =  -4.2449588750700E-02
(PID.TID 0000.0001) %MON dynstat_uvel_mean            =  -2.3646681775052E-03
(PID.TID 0000.0001) %MON dynstat_uvel_sd              =   4.0716861895086E-03
(PID.TID 0000.0001) %MON dynstat_uvel_del2            =   4.7715306746179E-05
(PID.TID 0000.0001) %MON dynstat_vvel_max             =   5.2408735507282E-02
(PID.TID 0000.0001) %MON dynstat_vvel_min             =  -3.5549110619386E-02
(PID.TID 0000.0001) %MON dynstat_vvel_mean            =   3.2658123768210E-03
(PID.TID 0000.0001) %MON dynstat_vvel_sd              =   1.0459973654939E-02
(PID.TID 0000.0001) %MON dynstat_vvel_del2            =   6.0132835945323E-05
(PID.TID 0000.0001) %MON dynstat_wvel_max             =   1.9964562726451E-04
(PID.TID 0000.0001) %MON dynstat_wvel_min             =  -2.0013947459678E-04
(PID.TID 0000.0001) %MON dynstat_wvel_mean            =   1.4679630645294E-22
(PID.TID 0000.0001) %MON dynstat_wvel_sd              =   2.8360384501163E-05
(PID.TID 0000.0001) %MON dynstat_wvel_del2            =   2.5281097402631E-07
(PID.TID 0000.0001) %MON dynstat_theta_max            =   2.9646242429331E+01
(PID.TID 0000.0001) %MON dynstat_theta_min            =  -1.9213627319594E+00
(PID.TID 0000.0001) %MON dynstat_theta_mean           =   3.6163247037203E+00
(PID.TID 0000.0001) %MON dynstat_theta_sd             =   4.4099708844208E+00
(PID.TID 0000.0001) %MON dynstat_theta_del2           =   5.3813695808685E-03
(PID.TID 0000.0001) %MON dynstat_salt_max             =   3.7457240973095E+01
(PID.TID 0000.0001) %MON dynstat_salt_min             =   2.9762729524531E+01
(PID.TID 0000.0001) %MON dynstat_salt_mean            =   3.4717722587642E+01
(PID.TID 0000.0001) %MON dynstat_salt_sd              =   2.9611561399376E-01
(PID.TID 0000.0001) %MON dynstat_salt_del2            =   1.0176958249976E-03
(PID.TID 0000.0001) %MON forcing_qnet_max             =   4.2746308898926E+02
(PID.TID 0000.0001) %MON forcing_qnet_min             =  -1.8632624130249E+02
(PID.TID 0000.0001) %MON forcing_qnet_mean            =  -1.6681437404656E+01
(PID.TID 0000.0001) %MON forcing_qnet_sd              =   1.1253182025933E+02
(PID.TID 0000.0001) %MON forcing_qnet_del2            =   9.9242224579849E-01
(PID.TID 0000.0001) %MON forcing_qsw_max              =   0.0000000000000E+00
(PID.TID 0000.0001) %MON forcing_qsw_min              =   0.0000000000000E+00
(PID.TID 0000.0001) %MON forcing_qsw_mean             =   0.0000000000000E+00
(PID.TID 0000.0001) %MON forcing_qsw_sd               =   0.0000000000000E+00
(PID.TID 0000.0001) %MON forcing_qsw_del2             =   0.0000000000000E+00
(PID.TID 0000.0001) %MON forcing_empmr_max            =   0.0000000000000E+00
(PID.TID 0000.0001) %MON forcing_empmr_min            =   0.0000000000000E+00
(PID.TID 0000.0001) %MON forcing_empmr_mean           =   0.0000000000000E+00
(PID.TID 0000.0001) %MON forcing_empmr_sd             =   0.0000000000000E+00
(PID.TID 0000.0001) %MON forcing_empmr_del2           =   0.0000000000000E+00
(PID.TID 0000.0001) %MON forcing_fu_max               =   2.7079343390651E-01
(PID.TID 0000.0001) %MON forcing_fu_min               =  -1.5885707996786E-01
(PID.TID 0000.0001) %MON forcing_fu_mean              =   1.6158176360629E-02
(PID.TID 0000.0001) %MON forcing_fu_sd                =   8.9794623183420E-02
(PID.TID 0000.0001) %MON forcing_fu_del2              =   6.3316887975205E-04
(PID.TID 0000.0001) %MON forcing_fv_max               =   2.0061830007471E-01
(PID.TID 0000.0001) %MON forcing_fv_min               =  -1.5495387074188E-01
(PID.TID 0000.0001) %MON forcing_fv_mean              =  -6.0918697939807E-03
(PID.TID 0000.0001) %MON forcing_fv_sd                =   4.3865466667209E-02
(PID.TID 0000.0001) %MON forcing_fv_del2              =   3.4275868585632E-04
(PID.TID 0000.0001) %MON trAdv_CFL_u_max              =   8.0010325438374E-03
(PID.TID 0000.0001) %MON trAdv_CFL_v_max              =   4.6268182862500E-03
(PID.TID 0000.0001) %MON trAdv_CFL_w_max              =   1.0731413746855E-01
(PID.TID 0000.0001) %MON advcfl_uvel_max              =   9.0173167140236E-03
(PID.TID 0000.0001) %MON advcfl_vvel_max              =   5.0910883870007E-03
(PID.TID 0000.0001) %MON advcfl_wvel_max              =   2.3738574229228E-01
(PID.TID 0000.0001) %MON advcfl_W_hf_max              =   1.1887723876349E-01
(PID.TID 0000.0001) %MON pe_b_mean                    =   1.9392794207660E-05
(PID.TID 0000.0001) %MON ke_max                       =   1.2072193821647E-03
(PID.TID 0000.0001) %MON ke_mean                      =   6.3979936365862E-05
(PID.TID 0000.0001) %MON ke_vol                       =   1.3226782436723E+18
(PID.TID 0000.0001) %MON vort_r_min                   =  -2.0451133414484E-07
(PID.TID 0000.0001) %MON vort_r_max                   =   2.3020702920767E-07
(PID.TID 0000.0001) %MON vort_a_mean                  =  -2.5205769332360E-05
(PID.TID 0000.0001) %MON vort_a_sd                    =   7.3402826588672E-05
(PID.TID 0000.0001) %MON vort_p_mean                  =  -3.1758669480510E-05
(PID.TID 0000.0001) %MON vort_p_sd                    =   1.3126524950060E-04
(PID.TID 0000.0001) %MON surfExpan_theta_mean         =   1.3423640724160E-04
(PID.TID 0000.0001) %MON surfExpan_salt_mean          =   1.1190640784243E-05
(PID.TID 0000.0001) // =======================================================
(PID.TID 0000.0001) // End MONITOR dynamic field statistics
(PID.TID 0000.0001) // =======================================================
(PID.TID 0000.0001)  EXF_SET_GEN: processing file: lev_sst.bin
(PID.TID 0000.0001)  EXF_SET_GEN:  myIter, count0, count1:         4     12      1
(PID.TID 0000.0001)  EXF_SET_GEN:  first, changed, fac:   F   F   0.433333333E+00
(PID.TID 0000.0001)  EXF_SET_GEN: processing file: lev_sss.bin
(PID.TID 0000.0001)  EXF_SET_GEN:  myIter, count0, count1:         4     12      1
(PID.TID 0000.0001)  EXF_SET_GEN:  first, changed, fac:   F   F   0.433333333E+00
(PID.TID 0000.0001)  EXF_SET_GEN: processing file: trenberth_taux.bin
(PID.TID 0000.0001)  EXF_SET_GEN:  myIter, count0, count1:         4     12      1
(PID.TID 0000.0001)  EXF_SET_GEN:  first, changed, fac:   F   F   0.433333333E+00
(PID.TID 0000.0001)  EXF_SET_GEN: processing file: trenberth_tauy.bin
(PID.TID 0000.0001)  EXF_SET_GEN:  myIter, count0, count1:         4     12      1
(PID.TID 0000.0001)  EXF_SET_GEN:  first, changed, fac:   F   F   0.433333333E+00
(PID.TID 0000.0001)  EXF_SET_GEN: processing file: ncep_qnet.bin
(PID.TID 0000.0001)  EXF_SET_GEN:  myIter, count0, count1:         4     12      1
(PID.TID 0000.0001)  EXF_SET_GEN:  first, changed, fac:   F   F   0.433333333E+00
(PID.TID 0000.0001) // =======================================================
(PID.TID 0000.0001) // Begin MONITOR EXF statistics
(PID.TID 0000.0001) // =======================================================
(PID.TID 0000.0001) %MON exf_tsnumber                 =                     4
(PID.TID 0000.0001) %MON exf_time_sec                 =   1.7280000000000E+05
(PID.TID 0000.0001) %MON exf_ustress_max              =   2.7429183218628E-01
(PID.TID 0000.0001) %MON exf_ustress_min              =  -1.5961493570358E-01
(PID.TID 0000.0001) %MON exf_ustress_mean             =   1.5089470260284E-02
(PID.TID 0000.0001) %MON exf_ustress_sd               =   8.8567670298546E-02
(PID.TID 0000.0001) %MON exf_ustress_del2             =   6.6649982677104E-04
(PID.TID 0000.0001) %MON exf_vstress_max              =   2.0621045813896E-01
(PID.TID 0000.0001) %MON exf_vstress_min              =  -1.5622175221797E-01
(PID.TID 0000.0001) %MON exf_vstress_mean             =  -6.3539614004179E-03
(PID.TID 0000.0001) %MON exf_vstress_sd               =   4.4974562798756E-02
(PID.TID 0000.0001) %MON exf_vstress_del2             =   4.2019392056575E-04
(PID.TID 0000.0001) %MON exf_hflux_max                =   4.2798718261719E+02
(PID.TID 0000.0001) %MON exf_hflux_min                =  -1.8609266001383E+02
(PID.TID 0000.0001) %MON exf_hflux_mean               =  -1.6675181426744E+01
(PID.TID 0000.0001) %MON exf_hflux_sd                 =   1.1242481361476E+02
(PID.TID 0000.0001) %MON exf_hflux_del2               =   1.1773898692435E+00
(PID.TID 0000.0001) %MON exf_climsst_max              =   2.9529529062907E+01
(PID.TID 0000.0001) %MON exf_climsst_min              =  -1.9000000000000E+00
(PID.TID 0000.0001) %MON exf_climsst_mean             =   1.8380765206768E+01
(PID.TID 0000.0001) %MON exf_climsst_sd               =   9.2046741525533E+00
(PID.TID 0000.0001) %MON exf_climsst_del2             =   2.4210771307775E-02
(PID.TID 0000.0001) %MON exf_climsss_max              =   3.7454538472493E+01
(PID.TID 0000.0001) %MON exf_climsss_min              =   2.9673608080546E+01
(PID.TID 0000.0001) %MON exf_climsss_mean             =   3.4847176207423E+01
(PID.TID 0000.0001) %MON exf_climsss_sd               =   9.6711182292510E-01
(PID.TID 0000.0001) %MON exf_climsss_del2             =   7.0240073074608E-03
(PID.TID 0000.0001) // =======================================================
(PID.TID 0000.0001) // End MONITOR EXF statistics
(PID.TID 0000.0001) // =======================================================
 cg2d: Sum(rhs),rhsMax =   1.30673249998381E-13  6.87319601341480E+00
(PID.TID 0000.0001)      cg2d_init_res =   1.77803457932888E+00
(PID.TID 0000.0001)      cg2d_iters(min,last) =      -1      26
(PID.TID 0000.0001)      cg2d_last_res =   2.65364148045126E-14
(PID.TID 0000.0001) // =======================================================
(PID.TID 0000.0001) // Begin MONITOR dynamic field statistics
(PID.TID 0000.0001) // =======================================================
(PID.TID 0000.0001) %MON time_tsnumber                =                     5
(PID.TID 0000.0001) %MON time_secondsf                =   2.1600000000000E+05
(PID.TID 0000.0001) %MON dynstat_eta_max              =   6.3427669160783E-01
(PID.TID 0000.0001) %MON dynstat_eta_min              =  -5.7829941473737E-01
(PID.TID 0000.0001) %MON dynstat_eta_mean             =  -1.5565616790898E-17
(PID.TID 0000.0001) %MON dynstat_eta_sd               =   1.5136817545204E-01
(PID.TID 0000.0001) %MON dynstat_eta_del2             =   2.8940838016577E-03
(PID.TID 0000.0001) %MON dynstat_uvel_max             =   5.4944855092475E-02
(PID.TID 0000.0001) %MON dynstat_uvel_min             =  -5.2651916645168E-02
(PID.TID 0000.0001) %MON dynstat_uvel_mean            =  -3.2365917156694E-03
(PID.TID 0000.0001) %MON dynstat_uvel_sd              =   5.2142970369606E-03
(PID.TID 0000.0001) %MON dynstat_uvel_del2            =   5.7798470736377E-05
(PID.TID 0000.0001) %MON dynstat_vvel_max             =   5.6699038141065E-02
(PID.TID 0000.0001) %MON dynstat_vvel_min             =  -4.6210045982793E-02
(PID.TID 0000.0001) %MON dynstat_vvel_mean            =   3.8456504263229E-03
(PID.TID 0000.0001) %MON dynstat_vvel_sd              =   1.1979374339711E-02
(PID.TID 0000.0001) %MON dynstat_vvel_del2            =   7.3996752468329E-05
(PID.TID 0000.0001) %MON dynstat_wvel_max             =   2.2550413452677E-04
(PID.TID 0000.0001) %MON dynstat_wvel_min             =  -2.3040610707913E-04
(PID.TID 0000.0001) %MON dynstat_wvel_mean            =   8.8077783871766E-22
(PID.TID 0000.0001) %MON dynstat_wvel_sd              =   2.9942221957846E-05
(PID.TID 0000.0001) %MON dynstat_wvel_del2            =   2.7838260414851E-07
(PID.TID 0000.0001) %MON dynstat_theta_max            =   2.9675860070637E+01
(PID.TID 0000.0001) %MON dynstat_theta_min            =  -1.9436949396243E+00
(PID.TID 0000.0001) %MON dynstat_theta_mean           =   3.6147001175600E+00
(PID.TID 0000.0001) %MON dynstat_theta_sd             =   4.4066214329234E+00
(PID.TID 0000.0001) %MON dynstat_theta_del2           =   5.3646134308697E-03
(PID.TID 0000.0001) %MON dynstat_salt_max             =   3.7453468561880E+01
(PID.TID 0000.0001) %MON dynstat_salt_min             =   2.9766124927368E+01
(PID.TID 0000.0001) %MON dynstat_salt_mean            =   3.4717583621033E+01
(PID.TID 0000.0001) %MON dynstat_salt_sd              =   2.9613788888206E-01
(PID.TID 0000.0001) %MON dynstat_salt_del2            =   1.0160134368703E-03
(PID.TID 0000.0001) %MON forcing_qnet_max             =   4.2798718261719E+02
(PID.TID 0000.0001) %MON forcing_qnet_min             =  -1.8609266001383E+02
(PID.TID 0000.0001) %MON forcing_qnet_mean            =  -1.6675181426744E+01
(PID.TID 0000.0001) %MON forcing_qnet_sd              =   1.1242481361476E+02
(PID.TID 0000.0001) %MON forcing_qnet_del2            =   9.9305199082959E-01
(PID.TID 0000.0001) %MON forcing_qsw_max              =   0.0000000000000E+00
(PID.TID 0000.0001) %MON forcing_qsw_min              =   0.0000000000000E+00
(PID.TID 0000.0001) %MON forcing_qsw_mean             =   0.0000000000000E+00
(PID.TID 0000.0001) %MON forcing_qsw_sd               =   0.0000000000000E+00
(PID.TID 0000.0001) %MON forcing_qsw_del2             =   0.0000000000000E+00
(PID.TID 0000.0001) %MON forcing_empmr_max            =   0.0000000000000E+00
(PID.TID 0000.0001) %MON forcing_empmr_min            =   0.0000000000000E+00
(PID.TID 0000.0001) %MON forcing_empmr_mean           =   0.0000000000000E+00
(PID.TID 0000.0001) %MON forcing_empmr_sd             =   0.0000000000000E+00
(PID.TID 0000.0001) %MON forcing_empmr_del2           =   0.0000000000000E+00
(PID.TID 0000.0001) %MON forcing_fu_max               =   2.7024973186975E-01
(PID.TID 0000.0001) %MON forcing_fu_min               =  -1.5907716291646E-01
(PID.TID 0000.0001) %MON forcing_fu_mean              =   1.6154081471189E-02
(PID.TID 0000.0001) %MON forcing_fu_sd                =   8.9793847368411E-02
(PID.TID 0000.0001) %MON forcing_fu_del2              =   6.3407811135163E-04
(PID.TID 0000.0001) %MON forcing_fv_max               =   2.0100386613049E-01
(PID.TID 0000.0001) %MON forcing_fv_min               =  -1.5553068289300E-01
(PID.TID 0000.0001) %MON forcing_fv_mean              =  -6.0562688732180E-03
(PID.TID 0000.0001) %MON forcing_fv_sd                =   4.3926709524156E-02
(PID.TID 0000.0001) %MON forcing_fv_del2              =   3.4305750494291E-04
(PID.TID 0000.0001) %MON trAdv_CFL_u_max              =   9.6499068851123E-03
(PID.TID 0000.0001) %MON trAdv_CFL_v_max              =   6.6185800357763E-03
(PID.TID 0000.0001) %MON trAdv_CFL_w_max              =   1.1869287114614E-01
(PID.TID 0000.0001) %MON advcfl_uvel_max              =   1.1571688266320E-02
(PID.TID 0000.0001) %MON advcfl_vvel_max              =   5.5078568837819E-03
(PID.TID 0000.0001) %MON advcfl_wvel_max              =   2.4517872538498E-01
(PID.TID 0000.0001) %MON advcfl_W_hf_max              =   1.2451101567856E-01
(PID.TID 0000.0001) %MON pe_b_mean                    =   2.9319080935858E-05
(PID.TID 0000.0001) %MON ke_max                       =   1.6829252834271E-03
(PID.TID 0000.0001) %MON ke_mean                      =   8.8176828322971E-05
(PID.TID 0000.0001) %MON ke_vol                       =   1.3226782436723E+18
(PID.TID 0000.0001) %MON vort_r_min                   =  -2.4557072926468E-07
(PID.TID 0000.0001) %MON vort_r_max                   =   2.6974984797541E-07
(PID.TID 0000.0001) %MON vort_a_mean                  =  -2.5205769327895E-05
(PID.TID 0000.0001) %MON vort_a_sd                    =   7.3402660982065E-05
(PID.TID 0000.0001) %MON vort_p_mean                  =  -3.1758669474885E-05
(PID.TID 0000.0001) %MON vort_p_sd                    =   1.3126480834624E-04
(PID.TID 0000.0001) %MON surfExpan_theta_mean         =   1.4955677316056E-04
(PID.TID 0000.0001) %MON surfExpan_salt_mean          =   1.2439755980025E-05
(PID.TID 0000.0001) // =======================================================
(PID.TID 0000.0001) // End MONITOR dynamic field statistics
(PID.TID 0000.0001) // =======================================================
(PID.TID 0000.0001)  EXF_SET_GEN: processing file: lev_sst.bin
(PID.TID 0000.0001)  EXF_SET_GEN:  myIter, count0, count1:         5     12      1
(PID.TID 0000.0001)  EXF_SET_GEN:  first, changed, fac:   F   F   0.416666667E+00
(PID.TID 0000.0001)  EXF_SET_GEN: processing file: lev_sss.bin
(PID.TID 0000.0001)  EXF_SET_GEN:  myIter, count0, count1:         5     12      1
(PID.TID 0000.0001)  EXF_SET_GEN:  first, changed, fac:   F   F   0.416666667E+00
(PID.TID 0000.0001)  EXF_SET_GEN: processing file: trenberth_taux.bin
(PID.TID 0000.0001)  EXF_SET_GEN:  myIter, count0, count1:         5     12      1
(PID.TID 0000.0001)  EXF_SET_GEN:  first, changed, fac:   F   F   0.416666667E+00
(PID.TID 0000.0001)  EXF_SET_GEN: processing file: trenberth_tauy.bin
(PID.TID 0000.0001)  EXF_SET_GEN:  myIter, count0, count1:         5     12      1
(PID.TID 0000.0001)  EXF_SET_GEN:  first, changed, fac:   F   F   0.416666667E+00
(PID.TID 0000.0001)  EXF_SET_GEN: processing file: ncep_qnet.bin
(PID.TID 0000.0001)  EXF_SET_GEN:  myIter, count0, count1:         5     12      1
(PID.TID 0000.0001)  EXF_SET_GEN:  first, changed, fac:   F   F   0.416666667E+00
(PID.TID 0000.0001) // =======================================================
(PID.TID 0000.0001) // Begin MONITOR EXF statistics
(PID.TID 0000.0001) // =======================================================
(PID.TID 0000.0001) %MON exf_tsnumber                 =                     5
(PID.TID 0000.0001) %MON exf_time_sec                 =   2.1600000000000E+05
(PID.TID 0000.0001) %MON exf_ustress_max              =   2.7410292485729E-01
(PID.TID 0000.0001) %MON exf_ustress_min              =  -1.5991807868704E-01
(PID.TID 0000.0001) %MON exf_ustress_mean             =   1.5086973289599E-02
(PID.TID 0000.0001) %MON exf_ustress_sd               =   8.8569967086568E-02
(PID.TID 0000.0001) %MON exf_ustress_del2             =   6.6741400810609E-04
(PID.TID 0000.0001) %MON exf_vstress_max              =   2.0691435702611E-01
(PID.TID 0000.0001) %MON exf_vstress_min              =  -1.5643916343106E-01
(PID.TID 0000.0001) %MON exf_vstress_mean             =  -6.3200321596236E-03
(PID.TID 0000.0001) %MON exf_vstress_sd               =   4.5036871005860E-02
(PID.TID 0000.0001) %MON exf_vstress_del2             =   4.2032310788455E-04
(PID.TID 0000.0001) %MON exf_hflux_max                =   4.2851127624512E+02
(PID.TID 0000.0001) %MON exf_hflux_min                =  -1.8585907872518E+02
(PID.TID 0000.0001) %MON exf_hflux_mean               =  -1.6668925448832E+01
(PID.TID 0000.0001) %MON exf_hflux_sd                 =   1.1231844797748E+02
(PID.TID 0000.0001) %MON exf_hflux_del2               =   1.1775002377136E+00
(PID.TID 0000.0001) %MON exf_climsst_max              =   2.9521501859029E+01
(PID.TID 0000.0001) %MON exf_climsst_min              =  -1.9000000000000E+00
(PID.TID 0000.0001) %MON exf_climsst_mean             =   1.8384753105142E+01
(PID.TID 0000.0001) %MON exf_climsst_sd               =   9.2029290461859E+00
(PID.TID 0000.0001) %MON exf_climsst_del2             =   2.4211819818159E-02
(PID.TID 0000.0001) %MON exf_climsss_max              =   3.7455349604289E+01
(PID.TID 0000.0001) %MON exf_climsss_min              =   2.9676652749379E+01
(PID.TID 0000.0001) %MON exf_climsss_mean             =   3.4847281940800E+01
(PID.TID 0000.0001) %MON exf_climsss_sd               =   9.6669143905524E-01
(PID.TID 0000.0001) %MON exf_climsss_del2             =   7.0288517291881E-03
(PID.TID 0000.0001) // =======================================================
(PID.TID 0000.0001) // End MONITOR EXF statistics
(PID.TID 0000.0001) // =======================================================
 cg2d: Sum(rhs),rhsMax =   4.29656310529936E-14  6.91595962047159E+00
(PID.TID 0000.0001)      cg2d_init_res =   1.70117762578793E+00
(PID.TID 0000.0001)      cg2d_iters(min,last) =      -1      26
(PID.TID 0000.0001)      cg2d_last_res =   2.70807224351910E-14
(PID.TID 0000.0001) // =======================================================
(PID.TID 0000.0001) // Begin MONITOR dynamic field statistics
(PID.TID 0000.0001) // =======================================================
(PID.TID 0000.0001) %MON time_tsnumber                =                     6
(PID.TID 0000.0001) %MON time_secondsf                =   2.5920000000000E+05
(PID.TID 0000.0001) %MON dynstat_eta_max              =   7.2236597278207E-01
(PID.TID 0000.0001) %MON dynstat_eta_min              =  -6.3890707217994E-01
(PID.TID 0000.0001) %MON dynstat_eta_mean             =  -1.0754426146438E-17
(PID.TID 0000.0001) %MON dynstat_eta_sd               =   1.7855663762344E-01
(PID.TID 0000.0001) %MON dynstat_eta_del2             =   2.7704252632577E-03
(PID.TID 0000.0001) %MON dynstat_uvel_max             =   6.6286612547017E-02
(PID.TID 0000.0001) %MON dynstat_uvel_min             =  -6.0891747001544E-02
(PID.TID 0000.0001) %MON dynstat_uvel_mean            =  -4.1580787195324E-03
(PID.TID 0000.0001) %MON dynstat_uvel_sd              =   6.4286931056673E-03
(PID.TID 0000.0001) %MON dynstat_uvel_del2            =   6.6452530908421E-05
(PID.TID 0000.0001) %MON dynstat_vvel_max             =   6.6185820682031E-02
(PID.TID 0000.0001) %MON dynstat_vvel_min             =  -5.6399851618213E-02
(PID.TID 0000.0001) %MON dynstat_vvel_mean            =   4.3051129775704E-03
(PID.TID 0000.0001) %MON dynstat_vvel_sd              =   1.3152833176647E-02
(PID.TID 0000.0001) %MON dynstat_vvel_del2            =   8.5342713567073E-05
(PID.TID 0000.0001) %MON dynstat_wvel_max             =   2.4586919776245E-04
(PID.TID 0000.0001) %MON dynstat_wvel_min             =  -2.5503446120423E-04
(PID.TID 0000.0001) %MON dynstat_wvel_mean            =  -7.6921264581343E-22
(PID.TID 0000.0001) %MON dynstat_wvel_sd              =   3.1535950428499E-05
(PID.TID 0000.0001) %MON dynstat_wvel_del2            =   3.1181613595067E-07
(PID.TID 0000.0001) %MON dynstat_theta_max            =   2.9704334439804E+01
(PID.TID 0000.0001) %MON dynstat_theta_min            =  -1.9716485300690E+00
(PID.TID 0000.0001) %MON dynstat_theta_mean           =   3.6129448776096E+00
(PID.TID 0000.0001) %MON dynstat_theta_sd             =   4.4029454992298E+00
(PID.TID 0000.0001) %MON dynstat_theta_del2           =   5.3484737995278E-03
(PID.TID 0000.0001) %MON dynstat_salt_max             =   3.7449692893420E+01
(PID.TID 0000.0001) %MON dynstat_salt_min             =   2.9769566430588E+01
(PID.TID 0000.0001) %MON dynstat_salt_mean            =   3.4717434929996E+01
(PID.TID 0000.0001) %MON dynstat_salt_sd              =   2.9615557600867E-01
(PID.TID 0000.0001) %MON dynstat_salt_del2            =   1.0144518198082E-03
(PID.TID 0000.0001) %MON forcing_qnet_max             =   4.2851127624512E+02
(PID.TID 0000.0001) %MON forcing_qnet_min             =  -1.8585907872518E+02
(PID.TID 0000.0001) %MON forcing_qnet_mean            =  -1.6668925448832E+01
(PID.TID 0000.0001) %MON forcing_qnet_sd              =   1.1231844797748E+02
(PID.TID 0000.0001) %MON forcing_qnet_del2            =   9.9372589486325E-01
(PID.TID 0000.0001) %MON forcing_qsw_max              =   0.0000000000000E+00
(PID.TID 0000.0001) %MON forcing_qsw_min              =   0.0000000000000E+00
(PID.TID 0000.0001) %MON forcing_qsw_mean             =   0.0000000000000E+00
(PID.TID 0000.0001) %MON forcing_qsw_sd               =   0.0000000000000E+00
(PID.TID 0000.0001) %MON forcing_qsw_del2             =   0.0000000000000E+00
(PID.TID 0000.0001) %MON forcing_empmr_max            =   0.0000000000000E+00
(PID.TID 0000.0001) %MON forcing_empmr_min            =   0.0000000000000E+00
(PID.TID 0000.0001) %MON forcing_empmr_mean           =   0.0000000000000E+00
(PID.TID 0000.0001) %MON forcing_empmr_sd             =   0.0000000000000E+00
(PID.TID 0000.0001) %MON forcing_empmr_del2           =   0.0000000000000E+00
(PID.TID 0000.0001) %MON forcing_fu_max               =   2.6970602983298E-01
(PID.TID 0000.0001) %MON forcing_fu_min               =  -1.5929724586507E-01
(PID.TID 0000.0001) %MON forcing_fu_mean              =   1.6149986581749E-02
(PID.TID 0000.0001) %MON forcing_fu_sd                =   8.9795706825673E-02
(PID.TID 0000.0001) %MON forcing_fu_del2              =   6.3510128738486E-04
(PID.TID 0000.0001) %MON forcing_fv_max               =   2.0153350598412E-01
(PID.TID 0000.0001) %MON forcing_fv_min               =  -1.5610749504413E-01
(PID.TID 0000.0001) %MON forcing_fv_mean              =  -6.0206679524552E-03
(PID.TID 0000.0001) %MON forcing_fv_sd                =   4.3991461488764E-02
(PID.TID 0000.0001) %MON forcing_fv_del2              =   3.4343853157036E-04
(PID.TID 0000.0001) %MON trAdv_CFL_u_max              =   1.1574038558969E-02
(PID.TID 0000.0001) %MON trAdv_CFL_v_max              =   8.6560375187859E-03
(PID.TID 0000.0001) %MON trAdv_CFL_w_max              =   1.2258936269249E-01
(PID.TID 0000.0001) %MON advcfl_uvel_max              =   1.4161162443046E-02
(PID.TID 0000.0001) %MON advcfl_vvel_max              =   6.4294217327869E-03
(PID.TID 0000.0001) %MON advcfl_wvel_max              =   2.1004692801562E-01
(PID.TID 0000.0001) %MON advcfl_W_hf_max              =   1.0934892537434E-01
(PID.TID 0000.0001) %MON pe_b_mean                    =   4.0797466882704E-05
(PID.TID 0000.0001) %MON ke_max                       =   2.2179639373161E-03
(PID.TID 0000.0001) %MON ke_mean                      =   1.1261758552787E-04
(PID.TID 0000.0001) %MON ke_vol                       =   1.3226782436723E+18
(PID.TID 0000.0001) %MON vort_r_min                   =  -2.7834749822398E-07
(PID.TID 0000.0001) %MON vort_r_max                   =   3.0113058060417E-07
(PID.TID 0000.0001) %MON vort_a_mean                  =  -2.5205769341541E-05
(PID.TID 0000.0001) %MON vort_a_sd                    =   7.3402487216967E-05
(PID.TID 0000.0001) %MON vort_p_mean                  =  -3.1758669492078E-05
(PID.TID 0000.0001) %MON vort_p_sd                    =   1.3126430376734E-04
(PID.TID 0000.0001) %MON surfExpan_theta_mean         =   1.5940202426223E-04
(PID.TID 0000.0001) %MON surfExpan_salt_mean          =   1.3146215356147E-05
(PID.TID 0000.0001) // =======================================================
(PID.TID 0000.0001) // End MONITOR dynamic field statistics
(PID.TID 0000.0001) // =======================================================
(PID.TID 0000.0001)  EXF_SET_GEN: processing file: lev_sst.bin
(PID.TID 0000.0001)  EXF_SET_GEN:  myIter, count0, count1:         6     12      1
(PID.TID 0000.0001)  EXF_SET_GEN:  first, changed, fac:   F   F   0.400000000E+00
(PID.TID 0000.0001)  EXF_SET_GEN: processing file: lev_sss.bin
(PID.TID 0000.0001)  EXF_SET_GEN:  myIter, count0, count1:         6     12      1
(PID.TID 0000.0001)  EXF_SET_GEN:  first, changed, fac:   F   F   0.400000000E+00
(PID.TID 0000.0001)  EXF_SET_GEN: processing file: trenberth_taux.bin
(PID.TID 0000.0001)  EXF_SET_GEN:  myIter, count0, count1:         6     12      1
(PID.TID 0000.0001)  EXF_SET_GEN:  first, changed, fac:   F   F   0.400000000E+00
(PID.TID 0000.0001)  EXF_SET_GEN: processing file: trenberth_tauy.bin
(PID.TID 0000.0001)  EXF_SET_GEN:  myIter, count0, count1:         6     12      1
(PID.TID 0000.0001)  EXF_SET_GEN:  first, changed, fac:   F   F   0.400000000E+00
(PID.TID 0000.0001)  EXF_SET_GEN: processing file: ncep_qnet.bin
(PID.TID 0000.0001)  EXF_SET_GEN:  myIter, count0, count1:         6     12      1
(PID.TID 0000.0001)  EXF_SET_GEN:  first, changed, fac:   F   F   0.400000000E+00
(PID.TID 0000.0001) // =======================================================
(PID.TID 0000.0001) // Begin MONITOR EXF statistics
(PID.TID 0000.0001) // =======================================================
(PID.TID 0000.0001) %MON exf_tsnumber                 =                     6
(PID.TID 0000.0001) %MON exf_time_sec                 =   2.5920000000000E+05
(PID.TID 0000.0001) %MON exf_ustress_max              =   2.7391401752830E-01
(PID.TID 0000.0001) %MON exf_ustress_min              =  -1.6022122167051E-01
(PID.TID 0000.0001) %MON exf_ustress_mean             =   1.5084476318914E-02
(PID.TID 0000.0001) %MON exf_ustress_sd               =   8.8574926309210E-02
(PID.TID 0000.0001) %MON exf_ustress_del2             =   6.6844703698297E-04
(PID.TID 0000.0001) %MON exf_vstress_max              =   2.0761825591326E-01
(PID.TID 0000.0001) %MON exf_vstress_min              =  -1.5671203974634E-01
(PID.TID 0000.0001) %MON exf_vstress_mean             =  -6.2861029188292E-03
(PID.TID 0000.0001) %MON exf_vstress_sd               =   4.5102838572511E-02
(PID.TID 0000.0001) %MON exf_vstress_del2             =   4.2054490623955E-04
(PID.TID 0000.0001) %MON exf_hflux_max                =   4.2903536987305E+02
(PID.TID 0000.0001) %MON exf_hflux_min                =  -1.8562549743652E+02
(PID.TID 0000.0001) %MON exf_hflux_mean               =  -1.6662669470921E+01
(PID.TID 0000.0001) %MON exf_hflux_sd                 =   1.1221272517031E+02
(PID.TID 0000.0001) %MON exf_hflux_del2               =   1.1776494743995E+00
(PID.TID 0000.0001) %MON exf_climsst_max              =   2.9513474655151E+01
(PID.TID 0000.0001) %MON exf_climsst_min              =  -1.9000000000000E+00
(PID.TID 0000.0001) %MON exf_climsst_mean             =   1.8388741003517E+01
(PID.TID 0000.0001) %MON exf_climsst_sd               =   9.2012483190590E+00
(PID.TID 0000.0001) %MON exf_climsst_del2             =   2.4222600624329E-02
(PID.TID 0000.0001) %MON exf_climsss_max              =   3.7456160736084E+01
(PID.TID 0000.0001) %MON exf_climsss_min              =   2.9679697418213E+01
(PID.TID 0000.0001) %MON exf_climsss_mean             =   3.4847387674176E+01
(PID.TID 0000.0001) %MON exf_climsss_sd               =   9.6629326695796E-01
(PID.TID 0000.0001) %MON exf_climsss_del2             =   7.0366844874259E-03
(PID.TID 0000.0001) // =======================================================
(PID.TID 0000.0001) // End MONITOR EXF statistics
(PID.TID 0000.0001) // =======================================================
 cg2d: Sum(rhs),rhsMax =   5.99520433297585E-14  7.18443119271776E+00
(PID.TID 0000.0001)      cg2d_init_res =   1.57126284433536E+00
(PID.TID 0000.0001)      cg2d_iters(min,last) =      -1      26
(PID.TID 0000.0001)      cg2d_last_res =   2.55176270398297E-14
(PID.TID 0000.0001) // =======================================================
(PID.TID 0000.0001) // Begin MONITOR dynamic field statistics
(PID.TID 0000.0001) // =======================================================
(PID.TID 0000.0001) %MON time_tsnumber                =                     7
(PID.TID 0000.0001) %MON time_secondsf                =   3.0240000000000E+05
(PID.TID 0000.0001) %MON dynstat_eta_max              =   8.2381236613744E-01
(PID.TID 0000.0001) %MON dynstat_eta_min              =  -6.9140726054037E-01
(PID.TID 0000.0001) %MON dynstat_eta_mean             =  -7.8111095168869E-18
(PID.TID 0000.0001) %MON dynstat_eta_sd               =   2.0470933291131E-01
(PID.TID 0000.0001) %MON dynstat_eta_del2             =   2.6567825633107E-03
(PID.TID 0000.0001) %MON dynstat_uvel_max             =   7.6935960023905E-02
(PID.TID 0000.0001) %MON dynstat_uvel_min             =  -7.3255177460794E-02
(PID.TID 0000.0001) %MON dynstat_uvel_mean            =  -5.0969700776532E-03
(PID.TID 0000.0001) %MON dynstat_uvel_sd              =   7.6797715143659E-03
(PID.TID 0000.0001) %MON dynstat_uvel_del2            =   7.3993292124474E-05
(PID.TID 0000.0001) %MON dynstat_vvel_max             =   7.4977514143190E-02
(PID.TID 0000.0001) %MON dynstat_vvel_min             =  -6.6239158483288E-02
(PID.TID 0000.0001) %MON dynstat_vvel_mean            =   4.6385460487256E-03
(PID.TID 0000.0001) %MON dynstat_vvel_sd              =   1.4004050141857E-02
(PID.TID 0000.0001) %MON dynstat_vvel_del2            =   9.4390513848448E-05
(PID.TID 0000.0001) %MON dynstat_wvel_max             =   2.6085226373810E-04
(PID.TID 0000.0001) %MON dynstat_wvel_min             =  -2.7350307015260E-04
(PID.TID 0000.0001) %MON dynstat_wvel_mean            =  -3.8754224903577E-22
(PID.TID 0000.0001) %MON dynstat_wvel_sd              =   3.2979497591214E-05
(PID.TID 0000.0001) %MON dynstat_wvel_del2            =   3.4166681393534E-07
(PID.TID 0000.0001) %MON dynstat_theta_max            =   2.9714442862202E+01
(PID.TID 0000.0001) %MON dynstat_theta_min            =  -2.0031620946909E+00
(PID.TID 0000.0001) %MON dynstat_theta_mean           =   3.6111163215961E+00
(PID.TID 0000.0001) %MON dynstat_theta_sd             =   4.3990276291524E+00
(PID.TID 0000.0001) %MON dynstat_theta_del2           =   5.3237532252490E-03
(PID.TID 0000.0001) %MON dynstat_salt_max             =   3.7446173868565E+01
(PID.TID 0000.0001) %MON dynstat_salt_min             =   2.9772925264317E+01
(PID.TID 0000.0001) %MON dynstat_salt_mean            =   3.4717281962891E+01
(PID.TID 0000.0001) %MON dynstat_salt_sd              =   2.9616587078220E-01
(PID.TID 0000.0001) %MON dynstat_salt_del2            =   1.0129295074108E-03
(PID.TID 0000.0001) %MON forcing_qnet_max             =   4.2903536987305E+02
(PID.TID 0000.0001) %MON forcing_qnet_min             =  -1.8562549743652E+02
(PID.TID 0000.0001) %MON forcing_qnet_mean            =  -1.6662669470921E+01
(PID.TID 0000.0001) %MON forcing_qnet_sd              =   1.1221272517031E+02
(PID.TID 0000.0001) %MON forcing_qnet_del2            =   9.9444386812388E-01
(PID.TID 0000.0001) %MON forcing_qsw_max              =   0.0000000000000E+00
(PID.TID 0000.0001) %MON forcing_qsw_min              =   0.0000000000000E+00
(PID.TID 0000.0001) %MON forcing_qsw_mean             =   0.0000000000000E+00
(PID.TID 0000.0001) %MON forcing_qsw_sd               =   0.0000000000000E+00
(PID.TID 0000.0001) %MON forcing_qsw_del2             =   0.0000000000000E+00
(PID.TID 0000.0001) %MON forcing_empmr_max            =   0.0000000000000E+00
(PID.TID 0000.0001) %MON forcing_empmr_min            =   0.0000000000000E+00
(PID.TID 0000.0001) %MON forcing_empmr_mean           =   0.0000000000000E+00
(PID.TID 0000.0001) %MON forcing_empmr_sd             =   0.0000000000000E+00
(PID.TID 0000.0001) %MON forcing_empmr_del2           =   0.0000000000000E+00
(PID.TID 0000.0001) %MON forcing_fu_max               =   2.6916232779622E-01
(PID.TID 0000.0001) %MON forcing_fu_min               =  -1.5951732881367E-01
(PID.TID 0000.0001) %MON forcing_fu_mean              =   1.6145891692309E-02
(PID.TID 0000.0001) %MON forcing_fu_sd                =   8.9800201391505E-02
(PID.TID 0000.0001) %MON forcing_fu_del2              =   6.3623785812733E-04
(PID.TID 0000.0001) %MON forcing_fv_max               =   2.0250951508060E-01
(PID.TID 0000.0001) %MON forcing_fv_min               =  -1.5668430719525E-01
(PID.TID 0000.0001) %MON forcing_fv_mean              =  -5.9850670316925E-03
(PID.TID 0000.0001) %MON forcing_fv_sd                =   4.4059707089647E-02
(PID.TID 0000.0001) %MON forcing_fv_del2              =   3.4390149249255E-04
(PID.TID 0000.0001) %MON trAdv_CFL_u_max              =   1.4164038676421E-02
(PID.TID 0000.0001) %MON trAdv_CFL_v_max              =   1.0462127136843E-02
(PID.TID 0000.0001) %MON trAdv_CFL_w_max              =   1.0502346400781E-01
(PID.TID 0000.0001) %MON advcfl_uvel_max              =   1.6297313415498E-02
(PID.TID 0000.0001) %MON advcfl_vvel_max              =   7.2834642516330E-03
(PID.TID 0000.0001) %MON advcfl_wvel_max              =   1.7876944512621E-01
(PID.TID 0000.0001) %MON advcfl_W_hf_max              =   8.8797304706337E-02
(PID.TID 0000.0001) %MON pe_b_mean                    =   5.3623664138264E-05
(PID.TID 0000.0001) %MON ke_max                       =   2.9933599273158E-03
(PID.TID 0000.0001) %MON ke_mean                      =   1.3630113968126E-04
(PID.TID 0000.0001) %MON ke_vol                       =   1.3226782436723E+18
(PID.TID 0000.0001) %MON vort_r_min                   =  -3.0226506959903E-07
(PID.TID 0000.0001) %MON vort_r_max                   =   3.2550728592809E-07
(PID.TID 0000.0001) %MON vort_a_mean                  =  -2.5205769383986E-05
(PID.TID 0000.0001) %MON vort_a_sd                    =   7.3402310488470E-05
(PID.TID 0000.0001) %MON vort_p_mean                  =  -3.1758669545558E-05
(PID.TID 0000.0001) %MON vort_p_sd                    =   1.3126375309864E-04
(PID.TID 0000.0001) %MON surfExpan_theta_mean         =   1.6431566405376E-04
(PID.TID 0000.0001) %MON surfExpan_salt_mean          =   1.3391948330676E-05
(PID.TID 0000.0001) // =======================================================
(PID.TID 0000.0001) // End MONITOR dynamic field statistics
(PID.TID 0000.0001) // =======================================================
(PID.TID 0000.0001)  EXF_SET_GEN: processing file: lev_sst.bin
(PID.TID 0000.0001)  EXF_SET_GEN:  myIter, count0, count1:         7     12      1
(PID.TID 0000.0001)  EXF_SET_GEN:  first, changed, fac:   F   F   0.383333333E+00
(PID.TID 0000.0001)  EXF_SET_GEN: processing file: lev_sss.bin
(PID.TID 0000.0001)  EXF_SET_GEN:  myIter, count0, count1:         7     12      1
(PID.TID 0000.0001)  EXF_SET_GEN:  first, changed, fac:   F   F   0.383333333E+00
(PID.TID 0000.0001)  EXF_SET_GEN: processing file: trenberth_taux.bin
(PID.TID 0000.0001)  EXF_SET_GEN:  myIter, count0, count1:         7     12      1
(PID.TID 0000.0001)  EXF_SET_GEN:  first, changed, fac:   F   F   0.383333333E+00
(PID.TID 0000.0001)  EXF_SET_GEN: processing file: trenberth_tauy.bin
(PID.TID 0000.0001)  EXF_SET_GEN:  myIter, count0, count1:         7     12      1
(PID.TID 0000.0001)  EXF_SET_GEN:  first, changed, fac:   F   F   0.383333333E+00
(PID.TID 0000.0001)  EXF_SET_GEN: processing file: ncep_qnet.bin
(PID.TID 0000.0001)  EXF_SET_GEN:  myIter, count0, count1:         7     12      1
(PID.TID 0000.0001)  EXF_SET_GEN:  first, changed, fac:   F   F   0.383333333E+00
(PID.TID 0000.0001) // =======================================================
(PID.TID 0000.0001) // Begin MONITOR EXF statistics
(PID.TID 0000.0001) // =======================================================
(PID.TID 0000.0001) %MON exf_tsnumber                 =                     7
(PID.TID 0000.0001) %MON exf_time_sec                 =   3.0240000000000E+05
(PID.TID 0000.0001) %MON exf_ustress_max              =   2.7372511019930E-01
(PID.TID 0000.0001) %MON exf_ustress_min              =  -1.6052436465397E-01
(PID.TID 0000.0001) %MON exf_ustress_mean             =   1.5081979348229E-02
(PID.TID 0000.0001) %MON exf_ustress_sd               =   8.8582547519309E-02
(PID.TID 0000.0001) %MON exf_ustress_del2             =   6.6959836334256E-04
(PID.TID 0000.0001) %MON exf_vstress_max              =   2.0832215480041E-01
(PID.TID 0000.0001) %MON exf_vstress_min              =  -1.5764825283550E-01
(PID.TID 0000.0001) %MON exf_vstress_mean             =  -6.2521736780349E-03
(PID.TID 0000.0001) %MON exf_vstress_sd               =   4.5172449466881E-02
(PID.TID 0000.0001) %MON exf_vstress_del2             =   4.2085916920907E-04
(PID.TID 0000.0001) %MON exf_hflux_max                =   4.2955946350098E+02
(PID.TID 0000.0001) %MON exf_hflux_min                =  -1.8539191614787E+02
(PID.TID 0000.0001) %MON exf_hflux_mean               =  -1.6656413493009E+01
(PID.TID 0000.0001) %MON exf_hflux_sd                 =   1.1210764701191E+02
(PID.TID 0000.0001) %MON exf_hflux_del2               =   1.1778375645270E+00
(PID.TID 0000.0001) %MON exf_climsst_max              =   2.9505447451274E+01
(PID.TID 0000.0001) %MON exf_climsst_min              =  -1.9000000000000E+00
(PID.TID 0000.0001) %MON exf_climsst_mean             =   1.8392728901891E+01
(PID.TID 0000.0001) %MON exf_climsst_sd               =   9.1996320064579E+00
(PID.TID 0000.0001) %MON exf_climsst_del2             =   2.4243100742556E-02
(PID.TID 0000.0001) %MON exf_climsss_max              =   3.7456971867879E+01
(PID.TID 0000.0001) %MON exf_climsss_min              =   2.9682742087046E+01
(PID.TID 0000.0001) %MON exf_climsss_mean             =   3.4847493407552E+01
(PID.TID 0000.0001) %MON exf_climsss_sd               =   9.6591733410179E-01
(PID.TID 0000.0001) %MON exf_climsss_del2             =   7.0474956182514E-03
(PID.TID 0000.0001) // =======================================================
(PID.TID 0000.0001) // End MONITOR EXF statistics
(PID.TID 0000.0001) // =======================================================
 cg2d: Sum(rhs),rhsMax =  -4.88498130835069E-14  7.77912494971839E+00
(PID.TID 0000.0001)      cg2d_init_res =   1.39156429794080E+00
(PID.TID 0000.0001)      cg2d_iters(min,last) =      -1      26
(PID.TID 0000.0001)      cg2d_last_res =   2.27483171720757E-14
(PID.TID 0000.0001) // =======================================================
(PID.TID 0000.0001) // Begin MONITOR dynamic field statistics
(PID.TID 0000.0001) // =======================================================
(PID.TID 0000.0001) %MON time_tsnumber                =                     8
(PID.TID 0000.0001) %MON time_secondsf                =   3.4560000000000E+05
(PID.TID 0000.0001) %MON dynstat_eta_max              =   8.9542908611243E-01
(PID.TID 0000.0001) %MON dynstat_eta_min              =  -7.2847442372360E-01
(PID.TID 0000.0001) %MON dynstat_eta_mean             =   7.0186781166230E-18
(PID.TID 0000.0001) %MON dynstat_eta_sd               =   2.2963363679182E-01
(PID.TID 0000.0001) %MON dynstat_eta_del2             =   2.5651086233323E-03
(PID.TID 0000.0001) %MON dynstat_uvel_max             =   8.6852244160064E-02
(PID.TID 0000.0001) %MON dynstat_uvel_min             =  -9.1630150552480E-02
(PID.TID 0000.0001) %MON dynstat_uvel_mean            =  -6.0220194281057E-03
(PID.TID 0000.0001) %MON dynstat_uvel_sd              =   8.9346926624409E-03
(PID.TID 0000.0001) %MON dynstat_uvel_del2            =   8.0618703952771E-05
(PID.TID 0000.0001) %MON dynstat_vvel_max             =   8.0631023725128E-02
(PID.TID 0000.0001) %MON dynstat_vvel_min             =  -7.5025812324910E-02
(PID.TID 0000.0001) %MON dynstat_vvel_mean            =   4.8451887181289E-03
(PID.TID 0000.0001) %MON dynstat_vvel_sd              =   1.4561829454730E-02
(PID.TID 0000.0001) %MON dynstat_vvel_del2            =   1.0152569863235E-04
(PID.TID 0000.0001) %MON dynstat_wvel_max             =   2.7007631270352E-04
(PID.TID 0000.0001) %MON dynstat_wvel_min             =  -2.8584059702801E-04
(PID.TID 0000.0001) %MON dynstat_wvel_mean            =  -6.1067263484425E-22
(PID.TID 0000.0001) %MON dynstat_wvel_sd              =   3.4121026236530E-05
(PID.TID 0000.0001) %MON dynstat_wvel_del2            =   3.6379115322196E-07
(PID.TID 0000.0001) %MON dynstat_theta_max            =   2.9701189392309E+01
(PID.TID 0000.0001) %MON dynstat_theta_min            =  -2.0357470828267E+00
(PID.TID 0000.0001) %MON dynstat_theta_mean           =   3.6092663686189E+00
(PID.TID 0000.0001) %MON dynstat_theta_sd             =   4.3949514709452E+00
(PID.TID 0000.0001) %MON dynstat_theta_del2           =   5.2924345721265E-03
(PID.TID 0000.0001) %MON dynstat_salt_max             =   3.7443034433049E+01
(PID.TID 0000.0001) %MON dynstat_salt_min             =   2.9776087782297E+01
(PID.TID 0000.0001) %MON dynstat_salt_mean            =   3.4717129358289E+01
(PID.TID 0000.0001) %MON dynstat_salt_sd              =   2.9616784204218E-01
(PID.TID 0000.0001) %MON dynstat_salt_del2            =   1.0114192699973E-03
(PID.TID 0000.0001) %MON forcing_qnet_max             =   4.2955946350098E+02
(PID.TID 0000.0001) %MON forcing_qnet_min             =  -1.8539191614787E+02
(PID.TID 0000.0001) %MON forcing_qnet_mean            =  -1.6656413493009E+01
(PID.TID 0000.0001) %MON forcing_qnet_sd              =   1.1210764701191E+02
(PID.TID 0000.0001) %MON forcing_qnet_del2            =   9.9520581523265E-01
(PID.TID 0000.0001) %MON forcing_qsw_max              =   0.0000000000000E+00
(PID.TID 0000.0001) %MON forcing_qsw_min              =   0.0000000000000E+00
(PID.TID 0000.0001) %MON forcing_qsw_mean             =   0.0000000000000E+00
(PID.TID 0000.0001) %MON forcing_qsw_sd               =   0.0000000000000E+00
(PID.TID 0000.0001) %MON forcing_qsw_del2             =   0.0000000000000E+00
(PID.TID 0000.0001) %MON forcing_empmr_max            =   0.0000000000000E+00
(PID.TID 0000.0001) %MON forcing_empmr_min            =   0.0000000000000E+00
(PID.TID 0000.0001) %MON forcing_empmr_mean           =   0.0000000000000E+00
(PID.TID 0000.0001) %MON forcing_empmr_sd             =   0.0000000000000E+00
(PID.TID 0000.0001) %MON forcing_empmr_del2           =   0.0000000000000E+00
(PID.TID 0000.0001) %MON forcing_fu_max               =   2.6861862575946E-01
(PID.TID 0000.0001) %MON forcing_fu_min               =  -1.5973741176228E-01
(PID.TID 0000.0001) %MON forcing_fu_mean              =   1.6141796802869E-02
(PID.TID 0000.0001) %MON forcing_fu_sd                =   8.9807330670270E-02
(PID.TID 0000.0001) %MON forcing_fu_del2              =   6.3748721706783E-04
(PID.TID 0000.0001) %MON forcing_fv_max               =   2.0348552417709E-01
(PID.TID 0000.0001) %MON forcing_fv_min               =  -1.5726111934637E-01
(PID.TID 0000.0001) %MON forcing_fv_mean              =  -5.9494661109297E-03
(PID.TID 0000.0001) %MON forcing_fv_sd                =   4.4131430118952E-02
(PID.TID 0000.0001) %MON forcing_fv_del2              =   3.4444605733241E-04
(PID.TID 0000.0001) %MON trAdv_CFL_u_max              =   1.6300623516413E-02
(PID.TID 0000.0001) %MON trAdv_CFL_v_max              =   1.1944525637148E-02
(PID.TID 0000.0001) %MON trAdv_CFL_w_max              =   8.8797304706337E-02
(PID.TID 0000.0001) %MON advcfl_uvel_max              =   1.7251803474949E-02
(PID.TID 0000.0001) %MON advcfl_vvel_max              =   7.8326573718219E-03
(PID.TID 0000.0001) %MON advcfl_wvel_max              =   1.9107701797424E-01
(PID.TID 0000.0001) %MON advcfl_W_hf_max              =   9.5747488484835E-02
(PID.TID 0000.0001) %MON pe_b_mean                    =   6.7476447233498E-05
(PID.TID 0000.0001) %MON ke_max                       =   3.8345371631639E-03
(PID.TID 0000.0001) %MON ke_mean                      =   1.5847949106376E-04
(PID.TID 0000.0001) %MON ke_vol                       =   1.3226782436723E+18
(PID.TID 0000.0001) %MON vort_r_min                   =  -3.1792791080360E-07
(PID.TID 0000.0001) %MON vort_r_max                   =   3.7608689024448E-07
(PID.TID 0000.0001) %MON vort_a_mean                  =  -2.5205769451433E-05
(PID.TID 0000.0001) %MON vort_a_sd                    =   7.3402135998835E-05
(PID.TID 0000.0001) %MON vort_p_mean                  =  -3.1758669630539E-05
(PID.TID 0000.0001) %MON vort_p_sd                    =   1.3126317480145E-04
(PID.TID 0000.0001) %MON surfExpan_theta_mean         =   1.6485795369830E-04
(PID.TID 0000.0001) %MON surfExpan_salt_mean          =   1.3234858765090E-05
(PID.TID 0000.0001) // =======================================================
(PID.TID 0000.0001) // End MONITOR dynamic field statistics
(PID.TID 0000.0001) // =======================================================
(PID.TID 0000.0001)  EXF_SET_GEN: processing file: lev_sst.bin
(PID.TID 0000.0001)  EXF_SET_GEN:  myIter, count0, count1:         8     12      1
(PID.TID 0000.0001)  EXF_SET_GEN:  first, changed, fac:   F   F   0.366666667E+00
(PID.TID 0000.0001)  EXF_SET_GEN: processing file: lev_sss.bin
(PID.TID 0000.0001)  EXF_SET_GEN:  myIter, count0, count1:         8     12      1
(PID.TID 0000.0001)  EXF_SET_GEN:  first, changed, fac:   F   F   0.366666667E+00
(PID.TID 0000.0001)  EXF_SET_GEN: processing file: trenberth_taux.bin
(PID.TID 0000.0001)  EXF_SET_GEN:  myIter, count0, count1:         8     12      1
(PID.TID 0000.0001)  EXF_SET_GEN:  first, changed, fac:   F   F   0.366666667E+00
(PID.TID 0000.0001)  EXF_SET_GEN: processing file: trenberth_tauy.bin
(PID.TID 0000.0001)  EXF_SET_GEN:  myIter, count0, count1:         8     12      1
(PID.TID 0000.0001)  EXF_SET_GEN:  first, changed, fac:   F   F   0.366666667E+00
(PID.TID 0000.0001)  EXF_SET_GEN: processing file: ncep_qnet.bin
(PID.TID 0000.0001)  EXF_SET_GEN:  myIter, count0, count1:         8     12      1
(PID.TID 0000.0001)  EXF_SET_GEN:  first, changed, fac:   F   F   0.366666667E+00
(PID.TID 0000.0001) // =======================================================
(PID.TID 0000.0001) // Begin MONITOR EXF statistics
(PID.TID 0000.0001) // =======================================================
(PID.TID 0000.0001) %MON exf_tsnumber                 =                     8
(PID.TID 0000.0001) %MON exf_time_sec                 =   3.4560000000000E+05
(PID.TID 0000.0001) %MON exf_ustress_max              =   2.7353620287031E-01
(PID.TID 0000.0001) %MON exf_ustress_min              =  -1.6082750763744E-01
(PID.TID 0000.0001) %MON exf_ustress_mean             =   1.5079482377544E-02
(PID.TID 0000.0001) %MON exf_ustress_sd               =   8.8592830029873E-02
(PID.TID 0000.0001) %MON exf_ustress_del2             =   6.7086737812733E-04
(PID.TID 0000.0001) %MON exf_vstress_max              =   2.0902605368756E-01
(PID.TID 0000.0001) %MON exf_vstress_min              =  -1.5858446592465E-01
(PID.TID 0000.0001) %MON exf_vstress_mean             =  -6.2182444372405E-03
(PID.TID 0000.0001) %MON exf_vstress_sd               =   4.5245686873096E-02
(PID.TID 0000.0001) %MON exf_vstress_del2             =   4.2126568985815E-04
(PID.TID 0000.0001) %MON exf_hflux_max                =   4.3008355712891E+02
(PID.TID 0000.0001) %MON exf_hflux_min                =  -1.8515833485921E+02
(PID.TID 0000.0001) %MON exf_hflux_mean               =  -1.6650157515098E+01
(PID.TID 0000.0001) %MON exf_hflux_sd                 =   1.1200321531664E+02
(PID.TID 0000.0001) %MON exf_hflux_del2               =   1.1780644894860E+00
(PID.TID 0000.0001) %MON exf_climsst_max              =   2.9497420247396E+01
(PID.TID 0000.0001) %MON exf_climsst_min              =  -1.9000000000000E+00
(PID.TID 0000.0001) %MON exf_climsst_mean             =   1.8396717973618E+01
(PID.TID 0000.0001) %MON exf_climsst_sd               =   9.1980775527158E+00
(PID.TID 0000.0001) %MON exf_climsst_del2             =   2.4273361746109E-02
(PID.TID 0000.0001) %MON exf_climsss_max              =   3.7457782999674E+01
(PID.TID 0000.0001) %MON exf_climsss_min              =   2.9685786755880E+01
(PID.TID 0000.0001) %MON exf_climsss_mean             =   3.4847599140929E+01
(PID.TID 0000.0001) %MON exf_climsss_sd               =   9.6556366646262E-01
(PID.TID 0000.0001) %MON exf_climsss_del2             =   7.0612714416024E-03
(PID.TID 0000.0001) // =======================================================
(PID.TID 0000.0001) // End MONITOR EXF statistics
(PID.TID 0000.0001) // =======================================================
 cg2d: Sum(rhs),rhsMax =  -1.14575016141316E-13  8.10213875274797E+00
(PID.TID 0000.0001)      cg2d_init_res =   1.28211689229199E+00
(PID.TID 0000.0001)      cg2d_iters(min,last) =      -1      25
(PID.TID 0000.0001)      cg2d_last_res =   9.33720737408575E-14
(PID.TID 0000.0001) // =======================================================
(PID.TID 0000.0001) // Begin MONITOR dynamic field statistics
(PID.TID 0000.0001) // =======================================================
(PID.TID 0000.0001) %MON time_tsnumber                =                     9
(PID.TID 0000.0001) %MON time_secondsf                =   3.8880000000000E+05
(PID.TID 0000.0001) %MON dynstat_eta_max              =   9.3678274720568E-01
(PID.TID 0000.0001) %MON dynstat_eta_min              =  -8.0932103543330E-01
(PID.TID 0000.0001) %MON dynstat_eta_mean             =   1.4422251484803E-16
(PID.TID 0000.0001) %MON dynstat_eta_sd               =   2.5306397280653E-01
(PID.TID 0000.0001) %MON dynstat_eta_del2             =   2.4881958970286E-03
(PID.TID 0000.0001) %MON dynstat_uvel_max             =   9.6069061921073E-02
(PID.TID 0000.0001) %MON dynstat_uvel_min             =  -1.0737162406335E-01
(PID.TID 0000.0001) %MON dynstat_uvel_mean            =  -6.9037508211573E-03
(PID.TID 0000.0001) %MON dynstat_uvel_sd              =   1.0162774196033E-02
(PID.TID 0000.0001) %MON dynstat_uvel_del2            =   8.6454558083301E-05
(PID.TID 0000.0001) %MON dynstat_vvel_max             =   8.4393030072851E-02
(PID.TID 0000.0001) %MON dynstat_vvel_min             =  -8.2666046469530E-02
(PID.TID 0000.0001) %MON dynstat_vvel_mean            =   4.9291446127632E-03
(PID.TID 0000.0001) %MON dynstat_vvel_sd              =   1.4861357407572E-02
(PID.TID 0000.0001) %MON dynstat_vvel_del2            =   1.0706148539954E-04
(PID.TID 0000.0001) %MON dynstat_wvel_max             =   2.7286812468937E-04
(PID.TID 0000.0001) %MON dynstat_wvel_min             =  -2.9275557869389E-04
(PID.TID 0000.0001) %MON dynstat_wvel_mean            =   1.8789927225977E-22
(PID.TID 0000.0001) %MON dynstat_wvel_sd              =   3.4870262333049E-05
(PID.TID 0000.0001) %MON dynstat_wvel_del2            =   3.7758701121930E-07
(PID.TID 0000.0001) %MON dynstat_theta_max            =   2.9668852733389E+01
(PID.TID 0000.0001) %MON dynstat_theta_min            =  -2.0314473451330E+00
(PID.TID 0000.0001) %MON dynstat_theta_mean           =   3.6074404784452E+00
(PID.TID 0000.0001) %MON dynstat_theta_sd             =   4.3907946075447E+00
(PID.TID 0000.0001) %MON dynstat_theta_del2           =   5.2585078695532E-03
(PID.TID 0000.0001) %MON dynstat_salt_max             =   3.7440265162669E+01
(PID.TID 0000.0001) %MON dynstat_salt_min             =   2.9778960312641E+01
(PID.TID 0000.0001) %MON dynstat_salt_mean            =   3.4716981263303E+01
(PID.TID 0000.0001) %MON dynstat_salt_sd              =   2.9616188656139E-01
(PID.TID 0000.0001) %MON dynstat_salt_del2            =   1.0099404246572E-03
(PID.TID 0000.0001) %MON forcing_qnet_max             =   4.3008355712891E+02
(PID.TID 0000.0001) %MON forcing_qnet_min             =  -1.8515833485921E+02
(PID.TID 0000.0001) %MON forcing_qnet_mean            =  -1.6650157515098E+01
(PID.TID 0000.0001) %MON forcing_qnet_sd              =   1.1200321531664E+02
(PID.TID 0000.0001) %MON forcing_qnet_del2            =   9.9601163526981E-01
(PID.TID 0000.0001) %MON forcing_qsw_max              =   0.0000000000000E+00
(PID.TID 0000.0001) %MON forcing_qsw_min              =   0.0000000000000E+00
(PID.TID 0000.0001) %MON forcing_qsw_mean             =   0.0000000000000E+00
(PID.TID 0000.0001) %MON forcing_qsw_sd               =   0.0000000000000E+00
(PID.TID 0000.0001) %MON forcing_qsw_del2             =   0.0000000000000E+00
(PID.TID 0000.0001) %MON forcing_empmr_max            =   0.0000000000000E+00
(PID.TID 0000.0001) %MON forcing_empmr_min            =   0.0000000000000E+00
(PID.TID 0000.0001) %MON forcing_empmr_mean           =   0.0000000000000E+00
(PID.TID 0000.0001) %MON forcing_empmr_sd             =   0.0000000000000E+00
(PID.TID 0000.0001) %MON forcing_empmr_del2           =   0.0000000000000E+00
(PID.TID 0000.0001) %MON forcing_fu_max               =   2.6836202526465E-01
(PID.TID 0000.0001) %MON forcing_fu_min               =  -1.5996404473359E-01
(PID.TID 0000.0001) %MON forcing_fu_mean              =   1.6137701913428E-02
(PID.TID 0000.0001) %MON forcing_fu_sd                =   8.9817094034574E-02
(PID.TID 0000.0001) %MON forcing_fu_del2              =   6.3884870248690E-04
(PID.TID 0000.0001) %MON forcing_fv_max               =   2.0446153327357E-01
(PID.TID 0000.0001) %MON forcing_fv_min               =  -1.5783793149749E-01
(PID.TID 0000.0001) %MON forcing_fv_mean              =  -5.9138651901670E-03
(PID.TID 0000.0001) %MON forcing_fv_sd                =   4.4206613650817E-02
(PID.TID 0000.0001) %MON forcing_fv_del2              =   3.4507183974779E-04
(PID.TID 0000.0001) %MON trAdv_CFL_u_max              =   1.7255307439622E-02
(PID.TID 0000.0001) %MON trAdv_CFL_v_max              =   1.3031126726318E-02
(PID.TID 0000.0001) %MON trAdv_CFL_w_max              =   9.5747488484835E-02
(PID.TID 0000.0001) %MON advcfl_uvel_max              =   1.6926264543269E-02
(PID.TID 0000.0001) %MON advcfl_vvel_max              =   8.1981061208392E-03
(PID.TID 0000.0001) %MON advcfl_wvel_max              =   1.9518130812323E-01
(PID.TID 0000.0001) %MON advcfl_W_hf_max              =   1.0050674782754E-01
(PID.TID 0000.0001) %MON pe_b_mean                    =   8.1948657546733E-05
(PID.TID 0000.0001) %MON ke_max                       =   4.7164229625026E-03
(PID.TID 0000.0001) %MON ke_mean                      =   1.7863749264001E-04
(PID.TID 0000.0001) %MON ke_vol                       =   1.3226782436723E+18
(PID.TID 0000.0001) %MON vort_r_min                   =  -3.2665421290744E-07
(PID.TID 0000.0001) %MON vort_r_max                   =   4.3930172218107E-07
(PID.TID 0000.0001) %MON vort_a_mean                  =  -2.5205769532507E-05
(PID.TID 0000.0001) %MON vort_a_sd                    =   7.3401968772545E-05
(PID.TID 0000.0001) %MON vort_p_mean                  =  -3.1758669732691E-05
(PID.TID 0000.0001) %MON vort_p_sd                    =   1.3126258828999E-04
(PID.TID 0000.0001) %MON surfExpan_theta_mean         =   1.6164165526520E-04
(PID.TID 0000.0001) %MON surfExpan_salt_mean          =   1.2725658693706E-05
(PID.TID 0000.0001) // =======================================================
(PID.TID 0000.0001) // End MONITOR dynamic field statistics
(PID.TID 0000.0001) // =======================================================
(PID.TID 0000.0001)  EXF_SET_GEN: processing file: lev_sst.bin
(PID.TID 0000.0001)  EXF_SET_GEN:  myIter, count0, count1:         9     12      1
(PID.TID 0000.0001)  EXF_SET_GEN:  first, changed, fac:   F   F   0.350000000E+00
(PID.TID 0000.0001)  EXF_SET_GEN: processing file: lev_sss.bin
(PID.TID 0000.0001)  EXF_SET_GEN:  myIter, count0, count1:         9     12      1
(PID.TID 0000.0001)  EXF_SET_GEN:  first, changed, fac:   F   F   0.350000000E+00
(PID.TID 0000.0001)  EXF_SET_GEN: processing file: trenberth_taux.bin
(PID.TID 0000.0001)  EXF_SET_GEN:  myIter, count0, count1:         9     12      1
(PID.TID 0000.0001)  EXF_SET_GEN:  first, changed, fac:   F   F   0.350000000E+00
(PID.TID 0000.0001)  EXF_SET_GEN: processing file: trenberth_tauy.bin
(PID.TID 0000.0001)  EXF_SET_GEN:  myIter, count0, count1:         9     12      1
(PID.TID 0000.0001)  EXF_SET_GEN:  first, changed, fac:   F   F   0.350000000E+00
(PID.TID 0000.0001)  EXF_SET_GEN: processing file: ncep_qnet.bin
(PID.TID 0000.0001)  EXF_SET_GEN:  myIter, count0, count1:         9     12      1
(PID.TID 0000.0001)  EXF_SET_GEN:  first, changed, fac:   F   F   0.350000000E+00
(PID.TID 0000.0001) // =======================================================
(PID.TID 0000.0001) // Begin MONITOR EXF statistics
(PID.TID 0000.0001) // =======================================================
(PID.TID 0000.0001) %MON exf_tsnumber                 =                     9
(PID.TID 0000.0001) %MON exf_time_sec                 =   3.8880000000000E+05
(PID.TID 0000.0001) %MON exf_ustress_max              =   2.7334729554132E-01
(PID.TID 0000.0001) %MON exf_ustress_min              =  -1.6113065062091E-01
(PID.TID 0000.0001) %MON exf_ustress_mean             =   1.5076985406859E-02
(PID.TID 0000.0001) %MON exf_ustress_sd               =   8.8605772914386E-02
(PID.TID 0000.0001) %MON exf_ustress_del2             =   6.7225341485522E-04
(PID.TID 0000.0001) %MON exf_vstress_max              =   2.0972995257471E-01
(PID.TID 0000.0001) %MON exf_vstress_min              =  -1.5952067901380E-01
(PID.TID 0000.0001) %MON exf_vstress_mean             =  -6.1843151964461E-03
(PID.TID 0000.0001) %MON exf_vstress_sd               =   4.5322533210744E-02
(PID.TID 0000.0001) %MON exf_vstress_del2             =   4.2176420141707E-04
(PID.TID 0000.0001) %MON exf_hflux_max                =   4.3060765075684E+02
(PID.TID 0000.0001) %MON exf_hflux_min                =  -1.8492475357056E+02
(PID.TID 0000.0001) %MON exf_hflux_mean               =  -1.6643901537186E+01
(PID.TID 0000.0001) %MON exf_hflux_sd                 =   1.1189943189448E+02
(PID.TID 0000.0001) %MON exf_hflux_del2               =   1.1783302268398E+00
(PID.TID 0000.0001) %MON exf_climsst_max              =   2.9489393043518E+01
(PID.TID 0000.0001) %MON exf_climsst_min              =  -1.9000000000000E+00
(PID.TID 0000.0001) %MON exf_climsst_mean             =   1.8400709572503E+01
(PID.TID 0000.0001) %MON exf_climsst_sd               =   9.1965819925044E+00
(PID.TID 0000.0001) %MON exf_climsst_del2             =   2.4313428025563E-02
(PID.TID 0000.0001) %MON exf_climsss_max              =   3.7458594131470E+01
(PID.TID 0000.0001) %MON exf_climsss_min              =   2.9688831424713E+01
(PID.TID 0000.0001) %MON exf_climsss_mean             =   3.4847704874305E+01
(PID.TID 0000.0001) %MON exf_climsss_sd               =   9.6523228851483E-01
(PID.TID 0000.0001) %MON exf_climsss_del2             =   7.0779946470543E-03
(PID.TID 0000.0001) // =======================================================
(PID.TID 0000.0001) // End MONITOR EXF statistics
(PID.TID 0000.0001) // =======================================================
 cg2d: Sum(rhs),rhsMax =  -2.66009436700188E-13  8.19596060702116E+00
(PID.TID 0000.0001)      cg2d_init_res =   1.21761135932490E+00
(PID.TID 0000.0001)      cg2d_iters(min,last) =      -1      25
(PID.TID 0000.0001)      cg2d_last_res =   8.67394483469570E-14
(PID.TID 0000.0001) // =======================================================
(PID.TID 0000.0001) // Begin MONITOR dynamic field statistics
(PID.TID 0000.0001) // =======================================================
(PID.TID 0000.0001) %MON time_tsnumber                =                    10
(PID.TID 0000.0001) %MON time_secondsf                =   4.3200000000000E+05
(PID.TID 0000.0001) %MON dynstat_eta_max              =   9.5253376817865E-01
(PID.TID 0000.0001) %MON dynstat_eta_min              =  -8.6109299039950E-01
(PID.TID 0000.0001) %MON dynstat_eta_mean             =   2.0218321155304E-16
(PID.TID 0000.0001) %MON dynstat_eta_sd               =   2.7473162294381E-01
(PID.TID 0000.0001) %MON dynstat_eta_del2             =   2.4169377033277E-03
(PID.TID 0000.0001) %MON dynstat_uvel_max             =   1.0462793991613E-01
(PID.TID 0000.0001) %MON dynstat_uvel_min             =  -1.1936333959191E-01
(PID.TID 0000.0001) %MON dynstat_uvel_mean            =  -7.7151925966879E-03
(PID.TID 0000.0001) %MON dynstat_uvel_sd              =   1.1336648757901E-02
(PID.TID 0000.0001) %MON dynstat_uvel_del2            =   9.1575602442806E-05
(PID.TID 0000.0001) %MON dynstat_vvel_max             =   9.3722509543407E-02
(PID.TID 0000.0001) %MON dynstat_vvel_min             =  -8.9007149176371E-02
(PID.TID 0000.0001) %MON dynstat_vvel_mean            =   4.8992266532645E-03
(PID.TID 0000.0001) %MON dynstat_vvel_sd              =   1.4944099659533E-02
(PID.TID 0000.0001) %MON dynstat_vvel_del2            =   1.1119370274202E-04
(PID.TID 0000.0001) %MON dynstat_wvel_max             =   2.6870738792860E-04
(PID.TID 0000.0001) %MON dynstat_wvel_min             =  -3.0314420322073E-04
(PID.TID 0000.0001) %MON dynstat_wvel_mean            =  -2.3487409032471E-22
(PID.TID 0000.0001) %MON dynstat_wvel_sd              =   3.5196269645425E-05
(PID.TID 0000.0001) %MON dynstat_wvel_del2            =   3.8379478322288E-07
(PID.TID 0000.0001) %MON dynstat_theta_max            =   2.9626948183636E+01
(PID.TID 0000.0001) %MON dynstat_theta_min            =  -2.0434920188581E+00
(PID.TID 0000.0001) %MON dynstat_theta_mean           =   3.6056768402863E+00
(PID.TID 0000.0001) %MON dynstat_theta_sd             =   4.3866257394336E+00
(PID.TID 0000.0001) %MON dynstat_theta_del2           =   5.2246312663601E-03
(PID.TID 0000.0001) %MON dynstat_salt_max             =   3.7437815236955E+01
(PID.TID 0000.0001) %MON dynstat_salt_min             =   2.9781472599438E+01
(PID.TID 0000.0001) %MON dynstat_salt_mean            =   3.4716841301156E+01
(PID.TID 0000.0001) %MON dynstat_salt_sd              =   2.9614900707811E-01
(PID.TID 0000.0001) %MON dynstat_salt_del2            =   1.0085426643879E-03
(PID.TID 0000.0001) %MON forcing_qnet_max             =   4.3060765075684E+02
(PID.TID 0000.0001) %MON forcing_qnet_min             =  -1.8492475357056E+02
(PID.TID 0000.0001) %MON forcing_qnet_mean            =  -1.6643901537186E+01
(PID.TID 0000.0001) %MON forcing_qnet_sd              =   1.1189943189448E+02
(PID.TID 0000.0001) %MON forcing_qnet_del2            =   9.9686122184036E-01
(PID.TID 0000.0001) %MON forcing_qsw_max              =   0.0000000000000E+00
(PID.TID 0000.0001) %MON forcing_qsw_min              =   0.0000000000000E+00
(PID.TID 0000.0001) %MON forcing_qsw_mean             =   0.0000000000000E+00
(PID.TID 0000.0001) %MON forcing_qsw_sd               =   0.0000000000000E+00
(PID.TID 0000.0001) %MON forcing_qsw_del2             =   0.0000000000000E+00
(PID.TID 0000.0001) %MON forcing_empmr_max            =   0.0000000000000E+00
(PID.TID 0000.0001) %MON forcing_empmr_min            =   0.0000000000000E+00
(PID.TID 0000.0001) %MON forcing_empmr_mean           =   0.0000000000000E+00
(PID.TID 0000.0001) %MON forcing_empmr_sd             =   0.0000000000000E+00
(PID.TID 0000.0001) %MON forcing_empmr_del2           =   0.0000000000000E+00
(PID.TID 0000.0001) %MON forcing_fu_max               =   2.6844808435999E-01
(PID.TID 0000.0001) %MON forcing_fu_min               =  -1.6039777453989E-01
(PID.TID 0000.0001) %MON forcing_fu_mean              =   1.6133607023988E-02
(PID.TID 0000.0001) %MON forcing_fu_sd                =   8.9829490625537E-02
(PID.TID 0000.0001) %MON forcing_fu_del2              =   6.4032159915732E-04
(PID.TID 0000.0001) %MON forcing_fv_max               =   2.0543754237005E-01
(PID.TID 0000.0001) %MON forcing_fv_min               =  -1.5841474364861E-01
(PID.TID 0000.0001) %MON forcing_fv_mean              =  -5.8782642694042E-03
(PID.TID 0000.0001) %MON forcing_fv_sd                =   4.4285240060448E-02
(PID.TID 0000.0001) %MON forcing_fv_del2              =   3.4577839878144E-04
(PID.TID 0000.0001) %MON trAdv_CFL_u_max              =   1.6929702388657E-02
(PID.TID 0000.0001) %MON trAdv_CFL_v_max              =   1.3672372737690E-02
(PID.TID 0000.0001) %MON trAdv_CFL_w_max              =   1.0050674782754E-01
(PID.TID 0000.0001) %MON advcfl_uvel_max              =   1.5463765951662E-02
(PID.TID 0000.0001) %MON advcfl_vvel_max              =   9.1043902379730E-03
(PID.TID 0000.0001) %MON advcfl_wvel_max              =   1.8988687047593E-01
(PID.TID 0000.0001) %MON advcfl_W_hf_max              =   9.6085896893328E-02
(PID.TID 0000.0001) %MON pe_b_mean                    =   9.6582513526193E-05
(PID.TID 0000.0001) %MON ke_max                       =   5.6318423509088E-03
(PID.TID 0000.0001) %MON ke_mean                      =   1.9646776792138E-04
(PID.TID 0000.0001) %MON ke_vol                       =   1.3226782436723E+18
(PID.TID 0000.0001) %MON vort_r_min                   =  -3.2990911305396E-07
(PID.TID 0000.0001) %MON vort_r_max                   =   4.9285241774085E-07
(PID.TID 0000.0001) %MON vort_a_mean                  =  -2.5205769614296E-05
(PID.TID 0000.0001) %MON vort_a_sd                    =   7.3401813507583E-05
(PID.TID 0000.0001) %MON vort_p_mean                  =  -3.1758669835743E-05
(PID.TID 0000.0001) %MON vort_p_sd                    =   1.3126201474407E-04
(PID.TID 0000.0001) %MON surfExpan_theta_mean         =   1.5530384966586E-04
(PID.TID 0000.0001) %MON surfExpan_salt_mean          =   1.1921009535751E-05
(PID.TID 0000.0001) // =======================================================
(PID.TID 0000.0001) // End MONITOR dynamic field statistics
(PID.TID 0000.0001) // =======================================================
(PID.TID 0000.0001)  EXF_SET_GEN: processing file: lev_sst.bin
(PID.TID 0000.0001)  EXF_SET_GEN:  myIter, count0, count1:        10     12      1
(PID.TID 0000.0001)  EXF_SET_GEN:  first, changed, fac:   F   F   0.333333333E+00
(PID.TID 0000.0001)  EXF_SET_GEN: processing file: lev_sss.bin
(PID.TID 0000.0001)  EXF_SET_GEN:  myIter, count0, count1:        10     12      1
(PID.TID 0000.0001)  EXF_SET_GEN:  first, changed, fac:   F   F   0.333333333E+00
(PID.TID 0000.0001)  EXF_SET_GEN: processing file: trenberth_taux.bin
(PID.TID 0000.0001)  EXF_SET_GEN:  myIter, count0, count1:        10     12      1
(PID.TID 0000.0001)  EXF_SET_GEN:  first, changed, fac:   F   F   0.333333333E+00
(PID.TID 0000.0001)  EXF_SET_GEN: processing file: trenberth_tauy.bin
(PID.TID 0000.0001)  EXF_SET_GEN:  myIter, count0, count1:        10     12      1
(PID.TID 0000.0001)  EXF_SET_GEN:  first, changed, fac:   F   F   0.333333333E+00
(PID.TID 0000.0001)  EXF_SET_GEN: processing file: ncep_qnet.bin
(PID.TID 0000.0001)  EXF_SET_GEN:  myIter, count0, count1:        10     12      1
(PID.TID 0000.0001)  EXF_SET_GEN:  first, changed, fac:   F   F   0.333333333E+00
(PID.TID 0000.0001) // =======================================================
(PID.TID 0000.0001) // Begin MONITOR EXF statistics
(PID.TID 0000.0001) // =======================================================
(PID.TID 0000.0001) %MON exf_tsnumber                 =                    10
(PID.TID 0000.0001) %MON exf_time_sec                 =   4.3200000000000E+05
(PID.TID 0000.0001) %MON exf_ustress_max              =   2.7315838821232E-01
(PID.TID 0000.0001) %MON exf_ustress_min              =  -1.6143379360437E-01
(PID.TID 0000.0001) %MON exf_ustress_mean             =   1.5074488436174E-02
(PID.TID 0000.0001) %MON exf_ustress_sd               =   8.8621375007229E-02
(PID.TID 0000.0001) %MON exf_ustress_del2             =   6.7375575132107E-04
(PID.TID 0000.0001) %MON exf_vstress_max              =   2.1043385146186E-01
(PID.TID 0000.0001) %MON exf_vstress_min              =  -1.6045689210296E-01
(PID.TID 0000.0001) %MON exf_vstress_mean             =  -6.1503859556518E-03
(PID.TID 0000.0001) %MON exf_vstress_sd               =   4.5402970155046E-02
(PID.TID 0000.0001) %MON exf_vstress_del2             =   4.2235437815097E-04
(PID.TID 0000.0001) %MON exf_hflux_max                =   4.3113174438477E+02
(PID.TID 0000.0001) %MON exf_hflux_min                =  -1.8469117228190E+02
(PID.TID 0000.0001) %MON exf_hflux_mean               =  -1.6637645559275E+01
(PID.TID 0000.0001) %MON exf_hflux_sd                 =   1.1179629855085E+02
(PID.TID 0000.0001) %MON exf_hflux_del2               =   1.1786347503363E+00
(PID.TID 0000.0001) %MON exf_climsst_max              =   2.9481945037842E+01
(PID.TID 0000.0001) %MON exf_climsst_min              =  -1.9000000000000E+00
(PID.TID 0000.0001) %MON exf_climsst_mean             =   1.8404701171387E+01
(PID.TID 0000.0001) %MON exf_climsst_sd               =   9.1951509295328E+00
(PID.TID 0000.0001) %MON exf_climsst_del2             =   2.4363111524477E-02
(PID.TID 0000.0001) %MON exf_climsss_max              =   3.7459405263265E+01
(PID.TID 0000.0001) %MON exf_climsss_min              =   2.9691876093547E+01
(PID.TID 0000.0001) %MON exf_climsss_mean             =   3.4847810607681E+01
(PID.TID 0000.0001) %MON exf_climsss_sd               =   9.6492322322287E-01
(PID.TID 0000.0001) %MON exf_climsss_del2             =   7.0976444011018E-03
(PID.TID 0000.0001) // =======================================================
(PID.TID 0000.0001) // End MONITOR EXF statistics
(PID.TID 0000.0001) // =======================================================
 cg2d: Sum(rhs),rhsMax =  -6.04849503815785E-13  8.12920128415356E+00
(PID.TID 0000.0001)      cg2d_init_res =   1.18033149905458E+00
(PID.TID 0000.0001)      cg2d_iters(min,last) =      -1      25
(PID.TID 0000.0001)      cg2d_last_res =   8.23209420089197E-14
(PID.TID 0000.0001) // =======================================================
(PID.TID 0000.0001) // Begin MONITOR dynamic field statistics
(PID.TID 0000.0001) // =======================================================
(PID.TID 0000.0001) %MON time_tsnumber                =                    11
(PID.TID 0000.0001) %MON time_secondsf                =   4.7520000000000E+05
(PID.TID 0000.0001) %MON dynstat_eta_max              =   9.4976429796337E-01
(PID.TID 0000.0001) %MON dynstat_eta_min              =  -8.8801801797892E-01
(PID.TID 0000.0001) %MON dynstat_eta_mean             =   3.3055709839579E-16
(PID.TID 0000.0001) %MON dynstat_eta_sd               =   2.9439846487463E-01
(PID.TID 0000.0001) %MON dynstat_eta_del2             =   2.3475792434708E-03
(PID.TID 0000.0001) %MON dynstat_uvel_max             =   1.1254251840120E-01
(PID.TID 0000.0001) %MON dynstat_uvel_min             =  -1.2703080446380E-01
(PID.TID 0000.0001) %MON dynstat_uvel_mean            =  -8.4326561519950E-03
(PID.TID 0000.0001) %MON dynstat_uvel_sd              =   1.2433694211039E-02
(PID.TID 0000.0001) %MON dynstat_uvel_del2            =   9.6016591032120E-05
(PID.TID 0000.0001) %MON dynstat_vvel_max             =   1.0080128420204E-01
(PID.TID 0000.0001) %MON dynstat_vvel_min             =  -9.3861811066906E-02
(PID.TID 0000.0001) %MON dynstat_vvel_mean            =   4.7686729276976E-03
(PID.TID 0000.0001) %MON dynstat_vvel_sd              =   1.4856500971081E-02
(PID.TID 0000.0001) %MON dynstat_vvel_del2            =   1.1404286176160E-04
(PID.TID 0000.0001) %MON dynstat_wvel_max             =   2.6135302110422E-04
(PID.TID 0000.0001) %MON dynstat_wvel_min             =  -3.2209151537824E-04
(PID.TID 0000.0001) %MON dynstat_wvel_mean            =   7.9857190710402E-22
(PID.TID 0000.0001) %MON dynstat_wvel_sd              =   3.5117933496261E-05
(PID.TID 0000.0001) %MON dynstat_wvel_del2            =   3.8357569761902E-07
(PID.TID 0000.0001) %MON dynstat_theta_max            =   2.9584826356009E+01
(PID.TID 0000.0001) %MON dynstat_theta_min            =  -2.0283483589952E+00
(PID.TID 0000.0001) %MON dynstat_theta_mean           =   3.6040062806449E+00
(PID.TID 0000.0001) %MON dynstat_theta_sd             =   4.3825038912720E+00
(PID.TID 0000.0001) %MON dynstat_theta_del2           =   5.1920823132712E-03
(PID.TID 0000.0001) %MON dynstat_salt_max             =   3.7435628939260E+01
(PID.TID 0000.0001) %MON dynstat_salt_min             =   2.9783579774770E+01
(PID.TID 0000.0001) %MON dynstat_salt_mean            =   3.4716712416136E+01
(PID.TID 0000.0001) %MON dynstat_salt_sd              =   2.9613035107226E-01
(PID.TID 0000.0001) %MON dynstat_salt_del2            =   1.0073192326057E-03
(PID.TID 0000.0001) %MON forcing_qnet_max             =   4.3113174438477E+02
(PID.TID 0000.0001) %MON forcing_qnet_min             =  -1.8469117228190E+02
(PID.TID 0000.0001) %MON forcing_qnet_mean            =  -1.6637645559275E+01
(PID.TID 0000.0001) %MON forcing_qnet_sd              =   1.1179629855085E+02
(PID.TID 0000.0001) %MON forcing_qnet_del2            =   9.9775446314289E-01
(PID.TID 0000.0001) %MON forcing_qsw_max              =   0.0000000000000E+00
(PID.TID 0000.0001) %MON forcing_qsw_min              =   0.0000000000000E+00
(PID.TID 0000.0001) %MON forcing_qsw_mean             =   0.0000000000000E+00
(PID.TID 0000.0001) %MON forcing_qsw_sd               =   0.0000000000000E+00
(PID.TID 0000.0001) %MON forcing_qsw_del2             =   0.0000000000000E+00
(PID.TID 0000.0001) %MON forcing_empmr_max            =   0.0000000000000E+00
(PID.TID 0000.0001) %MON forcing_empmr_min            =   0.0000000000000E+00
(PID.TID 0000.0001) %MON forcing_empmr_mean           =   0.0000000000000E+00
(PID.TID 0000.0001) %MON forcing_empmr_sd             =   0.0000000000000E+00
(PID.TID 0000.0001) %MON forcing_empmr_del2           =   0.0000000000000E+00
(PID.TID 0000.0001) %MON forcing_fu_max               =   2.6853414345533E-01
(PID.TID 0000.0001) %MON forcing_fu_min               =  -1.6083150434618E-01
(PID.TID 0000.0001) %MON forcing_fu_mean              =   1.6129512134548E-02
(PID.TID 0000.0001) %MON forcing_fu_sd                =   8.9844519353176E-02
(PID.TID 0000.0001) %MON forcing_fu_del2              =   6.4190514015661E-04
(PID.TID 0000.0001) %MON forcing_fv_max               =   2.0641355146654E-01
(PID.TID 0000.0001) %MON forcing_fv_min               =  -1.5899155579973E-01
(PID.TID 0000.0001) %MON forcing_fv_mean              =  -5.8426633486414E-03
(PID.TID 0000.0001) %MON forcing_fv_sd                =   4.4367291043749E-02
(PID.TID 0000.0001) %MON forcing_fv_del2              =   3.4656524038430E-04
(PID.TID 0000.0001) %MON trAdv_CFL_u_max              =   1.5466906753126E-02
(PID.TID 0000.0001) %MON trAdv_CFL_v_max              =   1.3841182324251E-02
(PID.TID 0000.0001) %MON trAdv_CFL_w_max              =   9.6085896893328E-02
(PID.TID 0000.0001) %MON advcfl_uvel_max              =   1.6585843837599E-02
(PID.TID 0000.0001) %MON advcfl_vvel_max              =   9.7920364311106E-03
(PID.TID 0000.0001) %MON advcfl_wvel_max              =   1.8535721334949E-01
(PID.TID 0000.0001) %MON advcfl_W_hf_max              =   8.9017889626124E-02
(PID.TID 0000.0001) %MON pe_b_mean                    =   1.1090529524166E-04
(PID.TID 0000.0001) %MON ke_max                       =   6.5700531073016E-03
(PID.TID 0000.0001) %MON ke_mean                      =   2.1183986192223E-04
(PID.TID 0000.0001) %MON ke_vol                       =   1.3226782436723E+18
(PID.TID 0000.0001) %MON vort_r_min                   =  -3.2890755945138E-07
(PID.TID 0000.0001) %MON vort_r_max                   =   5.3411474303822E-07
(PID.TID 0000.0001) %MON vort_a_mean                  =  -2.5205769685418E-05
(PID.TID 0000.0001) %MON vort_a_sd                    =   7.3401674440147E-05
(PID.TID 0000.0001) %MON vort_p_mean                  =  -3.1758669925355E-05
(PID.TID 0000.0001) %MON vort_p_sd                    =   1.3126147688731E-04
(PID.TID 0000.0001) %MON surfExpan_theta_mean         =   1.4647516141823E-04
(PID.TID 0000.0001) %MON surfExpan_salt_mean          =   1.0884884569937E-05
(PID.TID 0000.0001) // =======================================================
(PID.TID 0000.0001) // End MONITOR dynamic field statistics
(PID.TID 0000.0001) // =======================================================
 Computing Diagnostic #    194  EXFtaux      Counter:       1   Parms: UM      U1      
 Computing Diagnostic #    195  EXFtauy      Counter:       1   Parms: VM      U1      
 Computing Diagnostic #    193  EXFqnet      Counter:       1   Parms: SM      U1      
 Computing Diagnostic #    204  EXFempmr     Counter:       1   Parms: SM      U1      
 Computing Diagnostic #     26  THETA        Counter:       1   Parms: SMR     MR      
 Computing Diagnostic #     27  SALT         Counter:       1   Parms: SMR     MR      
 Computing Diagnostic #     30  UVEL         Counter:       1   Parms: UUR     MR      
           Vector  Mate for  UVEL         Diagnostic #     31  VVEL     exists 
 Computing Diagnostic #     31  VVEL         Counter:       1   Parms: VVR     MR      
           Vector  Mate for  VVEL         Diagnostic #     30  UVEL     exists 
(PID.TID 0000.0001)  EXF_SET_GEN: processing file: lev_sst.bin
(PID.TID 0000.0001)  EXF_SET_GEN:  myIter, count0, count1:        11     12      1
(PID.TID 0000.0001)  EXF_SET_GEN:  first, changed, fac:   F   F   0.316666667E+00
(PID.TID 0000.0001)  EXF_SET_GEN: processing file: lev_sss.bin
(PID.TID 0000.0001)  EXF_SET_GEN:  myIter, count0, count1:        11     12      1
(PID.TID 0000.0001)  EXF_SET_GEN:  first, changed, fac:   F   F   0.316666667E+00
(PID.TID 0000.0001)  EXF_SET_GEN: processing file: trenberth_taux.bin
(PID.TID 0000.0001)  EXF_SET_GEN:  myIter, count0, count1:        11     12      1
(PID.TID 0000.0001)  EXF_SET_GEN:  first, changed, fac:   F   F   0.316666667E+00
(PID.TID 0000.0001)  EXF_SET_GEN: processing file: trenberth_tauy.bin
(PID.TID 0000.0001)  EXF_SET_GEN:  myIter, count0, count1:        11     12      1
(PID.TID 0000.0001)  EXF_SET_GEN:  first, changed, fac:   F   F   0.316666667E+00
(PID.TID 0000.0001)  EXF_SET_GEN: processing file: ncep_qnet.bin
(PID.TID 0000.0001)  EXF_SET_GEN:  myIter, count0, count1:        11     12      1
(PID.TID 0000.0001)  EXF_SET_GEN:  first, changed, fac:   F   F   0.316666667E+00
(PID.TID 0000.0001) // =======================================================
(PID.TID 0000.0001) // Begin MONITOR EXF statistics
(PID.TID 0000.0001) // =======================================================
(PID.TID 0000.0001) %MON exf_tsnumber                 =                    11
(PID.TID 0000.0001) %MON exf_time_sec                 =   4.7520000000000E+05
(PID.TID 0000.0001) %MON exf_ustress_max              =   2.7296948088333E-01
(PID.TID 0000.0001) %MON exf_ustress_min              =  -1.6173693658784E-01
(PID.TID 0000.0001) %MON exf_ustress_mean             =   1.5071991465489E-02
(PID.TID 0000.0001) %MON exf_ustress_sd               =   8.8639634904205E-02
(PID.TID 0000.0001) %MON exf_ustress_del2             =   6.7537361141564E-04
(PID.TID 0000.0001) %MON exf_vstress_max              =   2.1113775034901E-01
(PID.TID 0000.0001) %MON exf_vstress_min              =  -1.6139310519211E-01
(PID.TID 0000.0001) %MON exf_vstress_mean             =  -6.1164567148574E-03
(PID.TID 0000.0001) %MON exf_vstress_sd               =   4.5486978657649E-02
(PID.TID 0000.0001) %MON exf_vstress_del2             =   4.2303583641414E-04
(PID.TID 0000.0001) %MON exf_hflux_max                =   4.3165583801270E+02
(PID.TID 0000.0001) %MON exf_hflux_min                =  -1.8445759099325E+02
(PID.TID 0000.0001) %MON exf_hflux_mean               =  -1.6631389581363E+01
(PID.TID 0000.0001) %MON exf_hflux_sd                 =   1.1169381708650E+02
(PID.TID 0000.0001) %MON exf_hflux_del2               =   1.1789780299208E+00
(PID.TID 0000.0001) %MON exf_climsst_max              =   2.9480035209656E+01
(PID.TID 0000.0001) %MON exf_climsst_min              =  -1.9000000000000E+00
(PID.TID 0000.0001) %MON exf_climsst_mean             =   1.8408692770272E+01
(PID.TID 0000.0001) %MON exf_climsst_sd               =   9.1937843939191E+00
(PID.TID 0000.0001) %MON exf_climsst_del2             =   2.4422353548690E-02
(PID.TID 0000.0001) %MON exf_climsss_max              =   3.7460216395060E+01
(PID.TID 0000.0001) %MON exf_climsss_min              =   2.9694920762380E+01
(PID.TID 0000.0001) %MON exf_climsss_mean             =   3.4847916341057E+01
(PID.TID 0000.0001) %MON exf_climsss_sd               =   9.6463649203339E-01
(PID.TID 0000.0001) %MON exf_climsss_del2             =   7.1201964744154E-03
(PID.TID 0000.0001) // =======================================================
(PID.TID 0000.0001) // End MONITOR EXF statistics
(PID.TID 0000.0001) // =======================================================
 cg2d: Sum(rhs),rhsMax =  -8.02025112989213E-13  7.96973314356759E+00
(PID.TID 0000.0001)      cg2d_init_res =   1.15851938105899E+00
(PID.TID 0000.0001)      cg2d_iters(min,last) =      -1      25
(PID.TID 0000.0001)      cg2d_last_res =   7.91745195068605E-14
(PID.TID 0000.0001) // =======================================================
(PID.TID 0000.0001) // Begin MONITOR dynamic field statistics
(PID.TID 0000.0001) // =======================================================
(PID.TID 0000.0001) %MON time_tsnumber                =                    12
(PID.TID 0000.0001) %MON time_secondsf                =   5.1840000000000E+05
(PID.TID 0000.0001) %MON dynstat_eta_max              =   9.7688688630921E-01
(PID.TID 0000.0001) %MON dynstat_eta_min              =  -9.6499106856451E-01
(PID.TID 0000.0001) %MON dynstat_eta_mean             =   3.3961345725595E-16
(PID.TID 0000.0001) %MON dynstat_eta_sd               =   3.1187848142912E-01
(PID.TID 0000.0001) %MON dynstat_eta_del2             =   2.2813170856454E-03
(PID.TID 0000.0001) %MON dynstat_uvel_max             =   1.1979983659197E-01
(PID.TID 0000.0001) %MON dynstat_uvel_min             =  -1.3027629945309E-01
(PID.TID 0000.0001) %MON dynstat_uvel_mean            =  -9.0366272118141E-03
(PID.TID 0000.0001) %MON dynstat_uvel_sd              =   1.3436935403196E-02
(PID.TID 0000.0001) %MON dynstat_uvel_del2            =   9.9795941238674E-05
(PID.TID 0000.0001) %MON dynstat_vvel_max             =   1.0535150544093E-01
(PID.TID 0000.0001) %MON dynstat_vvel_min             =  -9.7047325346851E-02
(PID.TID 0000.0001) %MON dynstat_vvel_mean            =   4.5545750608179E-03
(PID.TID 0000.0001) %MON dynstat_vvel_sd              =   1.4647594485406E-02
(PID.TID 0000.0001) %MON dynstat_vvel_del2            =   1.1571264888682E-04
(PID.TID 0000.0001) %MON dynstat_wvel_max             =   2.5331616179355E-04
(PID.TID 0000.0001) %MON dynstat_wvel_min             =  -3.3599355893594E-04
(PID.TID 0000.0001) %MON dynstat_wvel_mean            =   4.6974818064942E-23
(PID.TID 0000.0001) %MON dynstat_wvel_sd              =   3.4689022854674E-05
(PID.TID 0000.0001) %MON dynstat_wvel_del2            =   3.7814159863050E-07
(PID.TID 0000.0001) %MON dynstat_theta_max            =   2.9547337852586E+01
(PID.TID 0000.0001) %MON dynstat_theta_min            =  -2.0386334439135E+00
(PID.TID 0000.0001) %MON dynstat_theta_mean           =   3.6024525692708E+00
(PID.TID 0000.0001) %MON dynstat_theta_sd             =   4.3784701152496E+00
(PID.TID 0000.0001) %MON dynstat_theta_del2           =   5.1606569025695E-03
(PID.TID 0000.0001) %MON dynstat_salt_max             =   3.7433648152210E+01
(PID.TID 0000.0001) %MON dynstat_salt_min             =   2.9785262880552E+01
(PID.TID 0000.0001) %MON dynstat_salt_mean            =   3.4716596780077E+01
(PID.TID 0000.0001) %MON dynstat_salt_sd              =   2.9610497356270E-01
(PID.TID 0000.0001) %MON dynstat_salt_del2            =   1.0061351335177E-03
(PID.TID 0000.0001) %MON forcing_qnet_max             =   4.3165583801270E+02
(PID.TID 0000.0001) %MON forcing_qnet_min             =  -1.8445759099325E+02
(PID.TID 0000.0001) %MON forcing_qnet_mean            =  -1.6631389581363E+01
(PID.TID 0000.0001) %MON forcing_qnet_sd              =   1.1169381708650E+02
(PID.TID 0000.0001) %MON forcing_qnet_del2            =   9.9869124204146E-01
(PID.TID 0000.0001) %MON forcing_qsw_max              =   0.0000000000000E+00
(PID.TID 0000.0001) %MON forcing_qsw_min              =   0.0000000000000E+00
(PID.TID 0000.0001) %MON forcing_qsw_mean             =   0.0000000000000E+00
(PID.TID 0000.0001) %MON forcing_qsw_sd               =   0.0000000000000E+00
(PID.TID 0000.0001) %MON forcing_qsw_del2             =   0.0000000000000E+00
(PID.TID 0000.0001) %MON forcing_empmr_max            =   0.0000000000000E+00
(PID.TID 0000.0001) %MON forcing_empmr_min            =   0.0000000000000E+00
(PID.TID 0000.0001) %MON forcing_empmr_mean           =   0.0000000000000E+00
(PID.TID 0000.0001) %MON forcing_empmr_sd             =   0.0000000000000E+00
(PID.TID 0000.0001) %MON forcing_empmr_del2           =   0.0000000000000E+00
(PID.TID 0000.0001) %MON forcing_fu_max               =   2.6862020255066E-01
(PID.TID 0000.0001) %MON forcing_fu_min               =  -1.6126523415248E-01
(PID.TID 0000.0001) %MON forcing_fu_mean              =   1.6125417245108E-02
(PID.TID 0000.0001) %MON forcing_fu_sd                =   8.9862178896879E-02
(PID.TID 0000.0001) %MON forcing_fu_del2              =   6.4359850878124E-04
(PID.TID 0000.0001) %MON forcing_fv_max               =   2.0738956056302E-01
(PID.TID 0000.0001) %MON forcing_fv_min               =  -1.5956836795085E-01
(PID.TID 0000.0001) %MON forcing_fv_mean              =  -5.8070624278787E-03
(PID.TID 0000.0001) %MON forcing_fv_sd                =   4.4452747637466E-02
(PID.TID 0000.0001) %MON forcing_fv_del2              =   3.4743181910017E-04
(PID.TID 0000.0001) %MON trAdv_CFL_u_max              =   1.6589212541106E-02
(PID.TID 0000.0001) %MON trAdv_CFL_v_max              =   1.3634048686386E-02
(PID.TID 0000.0001) %MON trAdv_CFL_w_max              =   8.9461757592114E-02
(PID.TID 0000.0001) %MON advcfl_uvel_max              =   1.9464459406777E-02
(PID.TID 0000.0001) %MON advcfl_vvel_max              =   1.0234053936082E-02
(PID.TID 0000.0001) %MON advcfl_wvel_max              =   1.8848855087364E-01
(PID.TID 0000.0001) %MON advcfl_W_hf_max              =   8.2488346609916E-02
(PID.TID 0000.0001) %MON pe_b_mean                    =   1.2446636950489E-04
(PID.TID 0000.0001) %MON ke_max                       =   7.5142256678443E-03
(PID.TID 0000.0001) %MON ke_mean                      =   2.2476158784417E-04
(PID.TID 0000.0001) %MON ke_vol                       =   1.3226782436723E+18
(PID.TID 0000.0001) %MON vort_r_min                   =  -3.2447696945111E-07
(PID.TID 0000.0001) %MON vort_r_max                   =   5.6133480151845E-07
(PID.TID 0000.0001) %MON vort_a_mean                  =  -2.5205769737611E-05
(PID.TID 0000.0001) %MON vort_a_sd                    =   7.3401555178760E-05
(PID.TID 0000.0001) %MON vort_p_mean                  =  -3.1758669991117E-05
(PID.TID 0000.0001) %MON vort_p_sd                    =   1.3126099754843E-04
(PID.TID 0000.0001) %MON surfExpan_theta_mean         =   1.3574012139843E-04
(PID.TID 0000.0001) %MON surfExpan_salt_mean          =   9.6839840943064E-06
(PID.TID 0000.0001) // =======================================================
(PID.TID 0000.0001) // End MONITOR dynamic field statistics
(PID.TID 0000.0001) // =======================================================
(PID.TID 0000.0001)  EXF_SET_GEN: processing file: lev_sst.bin
(PID.TID 0000.0001)  EXF_SET_GEN:  myIter, count0, count1:        12     12      1
(PID.TID 0000.0001)  EXF_SET_GEN:  first, changed, fac:   F   F   0.300000000E+00
(PID.TID 0000.0001)  EXF_SET_GEN: processing file: lev_sss.bin
(PID.TID 0000.0001)  EXF_SET_GEN:  myIter, count0, count1:        12     12      1
(PID.TID 0000.0001)  EXF_SET_GEN:  first, changed, fac:   F   F   0.300000000E+00
(PID.TID 0000.0001)  EXF_SET_GEN: processing file: trenberth_taux.bin
(PID.TID 0000.0001)  EXF_SET_GEN:  myIter, count0, count1:        12     12      1
(PID.TID 0000.0001)  EXF_SET_GEN:  first, changed, fac:   F   F   0.300000000E+00
(PID.TID 0000.0001)  EXF_SET_GEN: processing file: trenberth_tauy.bin
(PID.TID 0000.0001)  EXF_SET_GEN:  myIter, count0, count1:        12     12      1
(PID.TID 0000.0001)  EXF_SET_GEN:  first, changed, fac:   F   F   0.300000000E+00
(PID.TID 0000.0001)  EXF_SET_GEN: processing file: ncep_qnet.bin
(PID.TID 0000.0001)  EXF_SET_GEN:  myIter, count0, count1:        12     12      1
(PID.TID 0000.0001)  EXF_SET_GEN:  first, changed, fac:   F   F   0.300000000E+00
(PID.TID 0000.0001) // =======================================================
(PID.TID 0000.0001) // Begin MONITOR EXF statistics
(PID.TID 0000.0001) // =======================================================
(PID.TID 0000.0001) %MON exf_tsnumber                 =                    12
(PID.TID 0000.0001) %MON exf_time_sec                 =   5.1840000000000E+05
(PID.TID 0000.0001) %MON exf_ustress_max              =   2.7278057355434E-01
(PID.TID 0000.0001) %MON exf_ustress_min              =  -1.6204007957131E-01
(PID.TID 0000.0001) %MON exf_ustress_mean             =   1.5069494494804E-02
(PID.TID 0000.0001) %MON exf_ustress_sd               =   8.8660550963165E-02
(PID.TID 0000.0001) %MON exf_ustress_del2             =   6.7710616705186E-04
(PID.TID 0000.0001) %MON exf_vstress_max              =   2.1184164923616E-01
(PID.TID 0000.0001) %MON exf_vstress_min              =  -1.6232931828126E-01
(PID.TID 0000.0001) %MON exf_vstress_mean             =  -6.0825274740630E-03
(PID.TID 0000.0001) %MON exf_vstress_sd               =   4.5574538967973E-02
(PID.TID 0000.0001) %MON exf_vstress_del2             =   4.2380813588099E-04
(PID.TID 0000.0001) %MON exf_hflux_max                =   4.3217993164063E+02
(PID.TID 0000.0001) %MON exf_hflux_min                =  -1.8422400970459E+02
(PID.TID 0000.0001) %MON exf_hflux_mean               =  -1.6625133603452E+01
(PID.TID 0000.0001) %MON exf_hflux_sd                 =   1.1159198929743E+02
(PID.TID 0000.0001) %MON exf_hflux_del2               =   1.1793600317507E+00
(PID.TID 0000.0001) %MON exf_climsst_max              =   2.9478125381470E+01
(PID.TID 0000.0001) %MON exf_climsst_min              =  -1.9000000000000E+00
(PID.TID 0000.0001) %MON exf_climsst_mean             =   1.8412684369156E+01
(PID.TID 0000.0001) %MON exf_climsst_sd               =   9.1924824144407E+00
(PID.TID 0000.0001) %MON exf_climsst_del2             =   2.4491084734316E-02
(PID.TID 0000.0001) %MON exf_climsss_max              =   3.7461027526855E+01
(PID.TID 0000.0001) %MON exf_climsss_min              =   2.9697965431213E+01
(PID.TID 0000.0001) %MON exf_climsss_mean             =   3.4848022074434E+01
(PID.TID 0000.0001) %MON exf_climsss_sd               =   9.6437211486778E-01
(PID.TID 0000.0001) %MON exf_climsss_del2             =   7.1456233872970E-03
(PID.TID 0000.0001) // =======================================================
(PID.TID 0000.0001) // End MONITOR EXF statistics
(PID.TID 0000.0001) // =======================================================
 cg2d: Sum(rhs),rhsMax =  -8.16235967704415E-13  8.38089351517804E+00
(PID.TID 0000.0001)      cg2d_init_res =   1.06188547650865E+00
(PID.TID 0000.0001)      cg2d_iters(min,last) =      -1      25
(PID.TID 0000.0001)      cg2d_last_res =   7.02710215106598E-14
(PID.TID 0000.0001) // =======================================================
(PID.TID 0000.0001) // Begin MONITOR dynamic field statistics
(PID.TID 0000.0001) // =======================================================
(PID.TID 0000.0001) %MON time_tsnumber                =                    13
(PID.TID 0000.0001) %MON time_secondsf                =   5.6160000000000E+05
(PID.TID 0000.0001) %MON dynstat_eta_max              =   1.0261905391641E+00
(PID.TID 0000.0001) %MON dynstat_eta_min              =  -1.0380883015963E+00
(PID.TID 0000.0001) %MON dynstat_eta_mean             =   5.3523080863538E-16
(PID.TID 0000.0001) %MON dynstat_eta_sd               =   3.2705328200718E-01
(PID.TID 0000.0001) %MON dynstat_eta_del2             =   2.2209219229863E-03
(PID.TID 0000.0001) %MON dynstat_uvel_max             =   1.2637824815756E-01
(PID.TID 0000.0001) %MON dynstat_uvel_min             =  -1.2936449697928E-01
(PID.TID 0000.0001) %MON dynstat_uvel_mean            =  -9.5126055066532E-03
(PID.TID 0000.0001) %MON dynstat_uvel_sd              =   1.4335166939132E-02
(PID.TID 0000.0001) %MON dynstat_uvel_del2            =   1.0293972117254E-04
(PID.TID 0000.0001) %MON dynstat_vvel_max             =   1.0913720355141E-01
(PID.TID 0000.0001) %MON dynstat_vvel_min             =  -9.8414432517681E-02
(PID.TID 0000.0001) %MON dynstat_vvel_mean            =   4.2769598237897E-03
(PID.TID 0000.0001) %MON dynstat_vvel_sd              =   1.4365908790358E-02
(PID.TID 0000.0001) %MON dynstat_vvel_del2            =   1.1632980285237E-04
(PID.TID 0000.0001) %MON dynstat_wvel_max             =   2.5432587842088E-04
(PID.TID 0000.0001) %MON dynstat_wvel_min             =  -3.4375881108005E-04
(PID.TID 0000.0001) %MON dynstat_wvel_mean            =   4.6974818064942E-22
(PID.TID 0000.0001) %MON dynstat_wvel_sd              =   3.3980213167210E-05
(PID.TID 0000.0001) %MON dynstat_wvel_del2            =   3.6858661887538E-07
(PID.TID 0000.0001) %MON dynstat_theta_max            =   2.9557024430300E+01
(PID.TID 0000.0001) %MON dynstat_theta_min            =  -2.0188246865545E+00
(PID.TID 0000.0001) %MON dynstat_theta_mean           =   3.6010331871047E+00
(PID.TID 0000.0001) %MON dynstat_theta_sd             =   4.3745910432478E+00
(PID.TID 0000.0001) %MON dynstat_theta_del2           =   5.1303559509563E-03
(PID.TID 0000.0001) %MON dynstat_salt_max             =   3.7431812830460E+01
(PID.TID 0000.0001) %MON dynstat_salt_min             =   2.9786528031252E+01
(PID.TID 0000.0001) %MON dynstat_salt_mean            =   3.4716495795080E+01
(PID.TID 0000.0001) %MON dynstat_salt_sd              =   2.9607638234428E-01
(PID.TID 0000.0001) %MON dynstat_salt_del2            =   1.0051980452332E-03
(PID.TID 0000.0001) %MON forcing_qnet_max             =   4.3217993164063E+02
(PID.TID 0000.0001) %MON forcing_qnet_min             =  -1.8422400970459E+02
(PID.TID 0000.0001) %MON forcing_qnet_mean            =  -1.6625133603452E+01
(PID.TID 0000.0001) %MON forcing_qnet_sd              =   1.1159198929743E+02
(PID.TID 0000.0001) %MON forcing_qnet_del2            =   9.9967143614056E-01
(PID.TID 0000.0001) %MON forcing_qsw_max              =   0.0000000000000E+00
(PID.TID 0000.0001) %MON forcing_qsw_min              =   0.0000000000000E+00
(PID.TID 0000.0001) %MON forcing_qsw_mean             =   0.0000000000000E+00
(PID.TID 0000.0001) %MON forcing_qsw_sd               =   0.0000000000000E+00
(PID.TID 0000.0001) %MON forcing_qsw_del2             =   0.0000000000000E+00
(PID.TID 0000.0001) %MON forcing_empmr_max            =   0.0000000000000E+00
(PID.TID 0000.0001) %MON forcing_empmr_min            =   0.0000000000000E+00
(PID.TID 0000.0001) %MON forcing_empmr_mean           =   0.0000000000000E+00
(PID.TID 0000.0001) %MON forcing_empmr_sd             =   0.0000000000000E+00
(PID.TID 0000.0001) %MON forcing_empmr_del2           =   0.0000000000000E+00
(PID.TID 0000.0001) %MON forcing_fu_max               =   2.6870626164600E-01
(PID.TID 0000.0001) %MON forcing_fu_min               =  -1.6169896395877E-01
(PID.TID 0000.0001) %MON forcing_fu_mean              =   1.6121322355668E-02
(PID.TID 0000.0001) %MON forcing_fu_sd                =   8.9882467705988E-02
(PID.TID 0000.0001) %MON forcing_fu_del2              =   6.4540084055204E-04
(PID.TID 0000.0001) %MON forcing_fv_max               =   2.0836556965951E-01
(PID.TID 0000.0001) %MON forcing_fv_min               =  -1.6014518010197E-01
(PID.TID 0000.0001) %MON forcing_fv_mean              =  -5.7714615071159E-03
(PID.TID 0000.0001) %MON forcing_fv_sd                =   4.4541590239798E-02
(PID.TID 0000.0001) %MON forcing_fv_del2              =   3.4837753989848E-04
(PID.TID 0000.0001) %MON trAdv_CFL_u_max              =   1.9468412777694E-02
(PID.TID 0000.0001) %MON trAdv_CFL_v_max              =   1.2992875847393E-02
(PID.TID 0000.0001) %MON trAdv_CFL_w_max              =   8.1883181952922E-02
(PID.TID 0000.0001) %MON advcfl_uvel_max              =   2.2473429464951E-02
(PID.TID 0000.0001) %MON advcfl_vvel_max              =   1.0601804149866E-02
(PID.TID 0000.0001) %MON advcfl_wvel_max              =   1.8874064859588E-01
(PID.TID 0000.0001) %MON advcfl_W_hf_max              =   8.2526990643772E-02
(PID.TID 0000.0001) %MON pe_b_mean                    =   1.3687313779865E-04
(PID.TID 0000.0001) %MON ke_max                       =   8.4431500536178E-03
(PID.TID 0000.0001) %MON ke_mean                      =   2.3533621045476E-04
(PID.TID 0000.0001) %MON ke_vol                       =   1.3226782436723E+18
(PID.TID 0000.0001) %MON vort_r_min                   =  -3.1712279609754E-07
(PID.TID 0000.0001) %MON vort_r_max                   =   5.7359978650698E-07
(PID.TID 0000.0001) %MON vort_a_mean                  =  -2.5205769766068E-05
(PID.TID 0000.0001) %MON vort_a_sd                    =   7.3401458536717E-05
(PID.TID 0000.0001) %MON vort_p_mean                  =  -3.1758670026972E-05
(PID.TID 0000.0001) %MON vort_p_sd                    =   1.3126059722524E-04
(PID.TID 0000.0001) %MON surfExpan_theta_mean         =   1.2364189006980E-04
(PID.TID 0000.0001) %MON surfExpan_salt_mean          =   8.3832634221677E-06
(PID.TID 0000.0001) // =======================================================
(PID.TID 0000.0001) // End MONITOR dynamic field statistics
(PID.TID 0000.0001) // =======================================================
(PID.TID 0000.0001)  EXF_SET_GEN: processing file: lev_sst.bin
(PID.TID 0000.0001)  EXF_SET_GEN:  myIter, count0, count1:        13     12      1
(PID.TID 0000.0001)  EXF_SET_GEN:  first, changed, fac:   F   F   0.283333333E+00
(PID.TID 0000.0001)  EXF_SET_GEN: processing file: lev_sss.bin
(PID.TID 0000.0001)  EXF_SET_GEN:  myIter, count0, count1:        13     12      1
(PID.TID 0000.0001)  EXF_SET_GEN:  first, changed, fac:   F   F   0.283333333E+00
(PID.TID 0000.0001)  EXF_SET_GEN: processing file: trenberth_taux.bin
(PID.TID 0000.0001)  EXF_SET_GEN:  myIter, count0, count1:        13     12      1
(PID.TID 0000.0001)  EXF_SET_GEN:  first, changed, fac:   F   F   0.283333333E+00
(PID.TID 0000.0001)  EXF_SET_GEN: processing file: trenberth_tauy.bin
(PID.TID 0000.0001)  EXF_SET_GEN:  myIter, count0, count1:        13     12      1
(PID.TID 0000.0001)  EXF_SET_GEN:  first, changed, fac:   F   F   0.283333333E+00
(PID.TID 0000.0001)  EXF_SET_GEN: processing file: ncep_qnet.bin
(PID.TID 0000.0001)  EXF_SET_GEN:  myIter, count0, count1:        13     12      1
(PID.TID 0000.0001)  EXF_SET_GEN:  first, changed, fac:   F   F   0.283333333E+00
(PID.TID 0000.0001) // =======================================================
(PID.TID 0000.0001) // Begin MONITOR EXF statistics
(PID.TID 0000.0001) // =======================================================
(PID.TID 0000.0001) %MON exf_tsnumber                 =                    13
(PID.TID 0000.0001) %MON exf_time_sec                 =   5.6160000000000E+05
(PID.TID 0000.0001) %MON exf_ustress_max              =   2.7259166622534E-01
(PID.TID 0000.0001) %MON exf_ustress_min              =  -1.6234322255477E-01
(PID.TID 0000.0001) %MON exf_ustress_mean             =   1.5066997524119E-02
(PID.TID 0000.0001) %MON exf_ustress_sd               =   8.8684121304751E-02
(PID.TID 0000.0001) %MON exf_ustress_del2             =   6.7895254018773E-04
(PID.TID 0000.0001) %MON exf_vstress_max              =   2.1254554812331E-01
(PID.TID 0000.0001) %MON exf_vstress_min              =  -1.6326553137042E-01
(PID.TID 0000.0001) %MON exf_vstress_mean             =  -6.0485982332687E-03
(PID.TID 0000.0001) %MON exf_vstress_sd               =   4.5665630655072E-02
(PID.TID 0000.0001) %MON exf_vstress_del2             =   4.2467078094477E-04
(PID.TID 0000.0001) %MON exf_hflux_max                =   4.3270402526855E+02
(PID.TID 0000.0001) %MON exf_hflux_min                =  -1.8399042841593E+02
(PID.TID 0000.0001) %MON exf_hflux_mean               =  -1.6618877625540E+01
(PID.TID 0000.0001) %MON exf_hflux_sd                 =   1.1149081697469E+02
(PID.TID 0000.0001) %MON exf_hflux_del2               =   1.1797807182124E+00
(PID.TID 0000.0001) %MON exf_climsst_max              =   2.9476215553284E+01
(PID.TID 0000.0001) %MON exf_climsst_min              =  -1.9000000000000E+00
(PID.TID 0000.0001) %MON exf_climsst_mean             =   1.8416675968041E+01
(PID.TID 0000.0001) %MON exf_climsst_sd               =   9.1912450185316E+00
(PID.TID 0000.0001) %MON exf_climsst_del2             =   2.4569225445114E-02
(PID.TID 0000.0001) %MON exf_climsss_max              =   3.7461838658651E+01
(PID.TID 0000.0001) %MON exf_climsss_min              =   2.9701010100047E+01
(PID.TID 0000.0001) %MON exf_climsss_mean             =   3.4848127807810E+01
(PID.TID 0000.0001) %MON exf_climsss_sd               =   9.6413011011536E-01
(PID.TID 0000.0001) %MON exf_climsss_del2             =   7.1738945713551E-03
(PID.TID 0000.0001) // =======================================================
(PID.TID 0000.0001) // End MONITOR EXF statistics
(PID.TID 0000.0001) // =======================================================
 cg2d: Sum(rhs),rhsMax =  -8.91731133378926E-13  9.04747251698248E+00
(PID.TID 0000.0001)      cg2d_init_res =   9.50981147761363E-01
(PID.TID 0000.0001)      cg2d_iters(min,last) =      -1      25
(PID.TID 0000.0001)      cg2d_last_res =   5.98888326523559E-14
(PID.TID 0000.0001) // =======================================================
(PID.TID 0000.0001) // Begin MONITOR dynamic field statistics
(PID.TID 0000.0001) // =======================================================
(PID.TID 0000.0001) %MON time_tsnumber                =                    14
(PID.TID 0000.0001) %MON time_secondsf                =   6.0480000000000E+05
(PID.TID 0000.0001) %MON dynstat_eta_max              =   1.0934383897813E+00
(PID.TID 0000.0001) %MON dynstat_eta_min              =  -1.1027990536298E+00
(PID.TID 0000.0001) %MON dynstat_eta_mean             =   6.1039858717469E-16
(PID.TID 0000.0001) %MON dynstat_eta_sd               =   3.3988085583230E-01
(PID.TID 0000.0001) %MON dynstat_eta_del2             =   2.1681757382092E-03
(PID.TID 0000.0001) %MON dynstat_uvel_max             =   1.3289027988432E-01
(PID.TID 0000.0001) %MON dynstat_uvel_min             =  -1.2479310697656E-01
(PID.TID 0000.0001) %MON dynstat_uvel_mean            =  -9.8516690832793E-03
(PID.TID 0000.0001) %MON dynstat_uvel_sd              =   1.5122462398139E-02
(PID.TID 0000.0001) %MON dynstat_uvel_del2            =   1.0549066148855E-04
(PID.TID 0000.0001) %MON dynstat_vvel_max             =   1.2006425496314E-01
(PID.TID 0000.0001) %MON dynstat_vvel_min             =  -9.8994121557762E-02
(PID.TID 0000.0001) %MON dynstat_vvel_mean            =   3.9575711842733E-03
(PID.TID 0000.0001) %MON dynstat_vvel_sd              =   1.4056121393086E-02
(PID.TID 0000.0001) %MON dynstat_vvel_del2            =   1.1606186032969E-04
(PID.TID 0000.0001) %MON dynstat_wvel_max             =   2.5190785921139E-04
(PID.TID 0000.0001) %MON dynstat_wvel_min             =  -3.4522184936853E-04
(PID.TID 0000.0001) %MON dynstat_wvel_mean            =   4.2277336258448E-22
(PID.TID 0000.0001) %MON dynstat_wvel_sd              =   3.3065908461421E-05
(PID.TID 0000.0001) %MON dynstat_wvel_del2            =   3.5591669953321E-07
(PID.TID 0000.0001) %MON dynstat_theta_max            =   2.9558011439850E+01
(PID.TID 0000.0001) %MON dynstat_theta_min            =  -2.0291598772355E+00
(PID.TID 0000.0001) %MON dynstat_theta_mean           =   3.5997597756058E+00
(PID.TID 0000.0001) %MON dynstat_theta_sd             =   4.3708920802136E+00
(PID.TID 0000.0001) %MON dynstat_theta_del2           =   5.1012172914307E-03
(PID.TID 0000.0001) %MON dynstat_salt_max             =   3.7430071525868E+01
(PID.TID 0000.0001) %MON dynstat_salt_min             =   2.9787404369012E+01
(PID.TID 0000.0001) %MON dynstat_salt_mean            =   3.4716410141249E+01
(PID.TID 0000.0001) %MON dynstat_salt_sd              =   2.9604475451082E-01
(PID.TID 0000.0001) %MON dynstat_salt_del2            =   1.0043494561977E-03
(PID.TID 0000.0001) %MON forcing_qnet_max             =   4.3270402526855E+02
(PID.TID 0000.0001) %MON forcing_qnet_min             =  -1.8399042841593E+02
(PID.TID 0000.0001) %MON forcing_qnet_mean            =  -1.6618877625540E+01
(PID.TID 0000.0001) %MON forcing_qnet_sd              =   1.1149081697469E+02
(PID.TID 0000.0001) %MON forcing_qnet_del2            =   1.0006949178629E+00
(PID.TID 0000.0001) %MON forcing_qsw_max              =   0.0000000000000E+00
(PID.TID 0000.0001) %MON forcing_qsw_min              =   0.0000000000000E+00
(PID.TID 0000.0001) %MON forcing_qsw_mean             =   0.0000000000000E+00
(PID.TID 0000.0001) %MON forcing_qsw_sd               =   0.0000000000000E+00
(PID.TID 0000.0001) %MON forcing_qsw_del2             =   0.0000000000000E+00
(PID.TID 0000.0001) %MON forcing_empmr_max            =   0.0000000000000E+00
(PID.TID 0000.0001) %MON forcing_empmr_min            =   0.0000000000000E+00
(PID.TID 0000.0001) %MON forcing_empmr_mean           =   0.0000000000000E+00
(PID.TID 0000.0001) %MON forcing_empmr_sd             =   0.0000000000000E+00
(PID.TID 0000.0001) %MON forcing_empmr_del2           =   0.0000000000000E+00
(PID.TID 0000.0001) %MON forcing_fu_max               =   2.6879232074134E-01
(PID.TID 0000.0001) %MON forcing_fu_min               =  -1.6213269376506E-01
(PID.TID 0000.0001) %MON forcing_fu_mean              =   1.6117227466228E-02
(PID.TID 0000.0001) %MON forcing_fu_sd                =   8.9905384000476E-02
(PID.TID 0000.0001) %MON forcing_fu_del2              =   6.4731122529971E-04
(PID.TID 0000.0001) %MON forcing_fv_max               =   2.0934157875599E-01
(PID.TID 0000.0001) %MON forcing_fv_min               =  -1.6072199225309E-01
(PID.TID 0000.0001) %MON forcing_fv_mean              =  -5.7358605863532E-03
(PID.TID 0000.0001) %MON forcing_fv_sd                =   4.4633798631419E-02
(PID.TID 0000.0001) %MON forcing_fv_del2              =   3.4940176014157E-04
(PID.TID 0000.0001) %MON trAdv_CFL_u_max              =   2.2477993979208E-02
(PID.TID 0000.0001) %MON trAdv_CFL_v_max              =   1.1931891800061E-02
(PID.TID 0000.0001) %MON trAdv_CFL_w_max              =   8.2526990643772E-02
(PID.TID 0000.0001) %MON advcfl_uvel_max              =   2.4555918608013E-02
(PID.TID 0000.0001) %MON advcfl_vvel_max              =   1.1663279570098E-02
(PID.TID 0000.0001) %MON advcfl_wvel_max              =   1.7490778231092E-01
(PID.TID 0000.0001) %MON advcfl_W_hf_max              =   7.6864607367379E-02
(PID.TID 0000.0001) %MON pe_b_mean                    =   1.4782047942000E-04
(PID.TID 0000.0001) %MON ke_max                       =   9.3350638211156E-03
(PID.TID 0000.0001) %MON ke_mean                      =   2.4372194428565E-04
(PID.TID 0000.0001) %MON ke_vol                       =   1.3226782436723E+18
(PID.TID 0000.0001) %MON vort_r_min                   =  -3.2818621138940E-07
(PID.TID 0000.0001) %MON vort_r_max                   =   5.7078814110193E-07
(PID.TID 0000.0001) %MON vort_a_mean                  =  -2.5205769769592E-05
(PID.TID 0000.0001) %MON vort_a_sd                    =   7.3401386409053E-05
(PID.TID 0000.0001) %MON vort_p_mean                  =  -3.1758670031413E-05
(PID.TID 0000.0001) %MON vort_p_sd                    =   1.3126029178149E-04
(PID.TID 0000.0001) %MON surfExpan_theta_mean         =   1.1064940214222E-04
(PID.TID 0000.0001) %MON surfExpan_salt_mean          =   7.0366816463147E-06
(PID.TID 0000.0001) // =======================================================
(PID.TID 0000.0001) // End MONITOR dynamic field statistics
(PID.TID 0000.0001) // =======================================================
(PID.TID 0000.0001)  EXF_SET_GEN: processing file: lev_sst.bin
(PID.TID 0000.0001)  EXF_SET_GEN:  myIter, count0, count1:        14     12      1
(PID.TID 0000.0001)  EXF_SET_GEN:  first, changed, fac:   F   F   0.266666667E+00
(PID.TID 0000.0001)  EXF_SET_GEN: processing file: lev_sss.bin
(PID.TID 0000.0001)  EXF_SET_GEN:  myIter, count0, count1:        14     12      1
(PID.TID 0000.0001)  EXF_SET_GEN:  first, changed, fac:   F   F   0.266666667E+00
(PID.TID 0000.0001)  EXF_SET_GEN: processing file: trenberth_taux.bin
(PID.TID 0000.0001)  EXF_SET_GEN:  myIter, count0, count1:        14     12      1
(PID.TID 0000.0001)  EXF_SET_GEN:  first, changed, fac:   F   F   0.266666667E+00
(PID.TID 0000.0001)  EXF_SET_GEN: processing file: trenberth_tauy.bin
(PID.TID 0000.0001)  EXF_SET_GEN:  myIter, count0, count1:        14     12      1
(PID.TID 0000.0001)  EXF_SET_GEN:  first, changed, fac:   F   F   0.266666667E+00
(PID.TID 0000.0001)  EXF_SET_GEN: processing file: ncep_qnet.bin
(PID.TID 0000.0001)  EXF_SET_GEN:  myIter, count0, count1:        14     12      1
(PID.TID 0000.0001)  EXF_SET_GEN:  first, changed, fac:   F   F   0.266666667E+00
(PID.TID 0000.0001) // =======================================================
(PID.TID 0000.0001) // Begin MONITOR EXF statistics
(PID.TID 0000.0001) // =======================================================
(PID.TID 0000.0001) %MON exf_tsnumber                 =                    14
(PID.TID 0000.0001) %MON exf_time_sec                 =   6.0480000000000E+05
(PID.TID 0000.0001) %MON exf_ustress_max              =   2.7240275889635E-01
(PID.TID 0000.0001) %MON exf_ustress_min              =  -1.6264636553824E-01
(PID.TID 0000.0001) %MON exf_ustress_mean             =   1.5064500553434E-02
(PID.TID 0000.0001) %MON exf_ustress_sd               =   8.8710343813234E-02
(PID.TID 0000.0001) %MON exf_ustress_del2             =   6.8091180493493E-04
(PID.TID 0000.0001) %MON exf_vstress_max              =   2.1324944701046E-01
(PID.TID 0000.0001) %MON exf_vstress_min              =  -1.6420174445957E-01
(PID.TID 0000.0001) %MON exf_vstress_mean             =  -6.0146689924743E-03
(PID.TID 0000.0001) %MON exf_vstress_sd               =   4.5760232629959E-02
(PID.TID 0000.0001) %MON exf_vstress_del2             =   4.2562322227360E-04
(PID.TID 0000.0001) %MON exf_hflux_max                =   4.3322811889648E+02
(PID.TID 0000.0001) %MON exf_hflux_min                =  -1.8375684712728E+02
(PID.TID 0000.0001) %MON exf_hflux_mean               =  -1.6612621647629E+01
(PID.TID 0000.0001) %MON exf_hflux_sd                 =   1.1139030190430E+02
(PID.TID 0000.0001) %MON exf_hflux_del2               =   1.1802400479393E+00
(PID.TID 0000.0001) %MON exf_climsst_max              =   2.9474305725098E+01
(PID.TID 0000.0001) %MON exf_climsst_min              =  -1.9000000000000E+00
(PID.TID 0000.0001) %MON exf_climsst_mean             =   1.8420667566925E+01
(PID.TID 0000.0001) %MON exf_climsst_sd               =   9.1900722322794E+00
(PID.TID 0000.0001) %MON exf_climsst_del2             =   2.4656686220686E-02
(PID.TID 0000.0001) %MON exf_climsss_max              =   3.7462649790446E+01
(PID.TID 0000.0001) %MON exf_climsss_min              =   2.9704054768880E+01
(PID.TID 0000.0001) %MON exf_climsss_mean             =   3.4848233541186E+01
(PID.TID 0000.0001) %MON exf_climsss_sd               =   9.6391049462694E-01
(PID.TID 0000.0001) %MON exf_climsss_del2             =   7.2049765452619E-03
(PID.TID 0000.0001) // =======================================================
(PID.TID 0000.0001) // End MONITOR EXF statistics
(PID.TID 0000.0001) // =======================================================
 cg2d: Sum(rhs),rhsMax =  -8.98836560736527E-13  9.52422654620853E+00
(PID.TID 0000.0001)      cg2d_init_res =   8.76857446517916E-01
(PID.TID 0000.0001)      cg2d_iters(min,last) =      -1      25
(PID.TID 0000.0001)      cg2d_last_res =   5.15511975909820E-14
(PID.TID 0000.0001) // =======================================================
(PID.TID 0000.0001) // Begin MONITOR dynamic field statistics
(PID.TID 0000.0001) // =======================================================
(PID.TID 0000.0001) %MON time_tsnumber                =                    15
(PID.TID 0000.0001) %MON time_secondsf                =   6.4800000000000E+05
(PID.TID 0000.0001) %MON dynstat_eta_max              =   1.1492937265053E+00
(PID.TID 0000.0001) %MON dynstat_eta_min              =  -1.1385614032792E+00
(PID.TID 0000.0001) %MON dynstat_eta_mean             =   6.0677604363063E-16
(PID.TID 0000.0001) %MON dynstat_eta_sd               =   3.5039612701535E-01
(PID.TID 0000.0001) %MON dynstat_eta_del2             =   2.1232384789829E-03
(PID.TID 0000.0001) %MON dynstat_uvel_max             =   1.4184093693774E-01
(PID.TID 0000.0001) %MON dynstat_uvel_min             =  -1.2602345462470E-01
(PID.TID 0000.0001) %MON dynstat_uvel_mean            =  -1.0050660493578E-02
(PID.TID 0000.0001) %MON dynstat_uvel_sd              =   1.5797496914224E-02
(PID.TID 0000.0001) %MON dynstat_uvel_del2            =   1.0750847108070E-04
(PID.TID 0000.0001) %MON dynstat_vvel_max             =   1.3260797996505E-01
(PID.TID 0000.0001) %MON dynstat_vvel_min             =  -1.0126543771476E-01
(PID.TID 0000.0001) %MON dynstat_vvel_mean            =   3.6185719155928E-03
(PID.TID 0000.0001) %MON dynstat_vvel_sd              =   1.3755820069191E-02
(PID.TID 0000.0001) %MON dynstat_vvel_del2            =   1.1511892668666E-04
(PID.TID 0000.0001) %MON dynstat_wvel_max             =   2.4649303612797E-04
(PID.TID 0000.0001) %MON dynstat_wvel_min             =  -3.4096304572575E-04
(PID.TID 0000.0001) %MON dynstat_wvel_mean            =   2.3487409032471E-21
(PID.TID 0000.0001) %MON dynstat_wvel_sd              =   3.2017330117166E-05
(PID.TID 0000.0001) %MON dynstat_wvel_del2            =   3.4114728338556E-07
(PID.TID 0000.0001) %MON dynstat_theta_max            =   2.9547910500266E+01
(PID.TID 0000.0001) %MON dynstat_theta_min            =  -2.0155758117853E+00
(PID.TID 0000.0001) %MON dynstat_theta_mean           =   3.5986392284848E+00
(PID.TID 0000.0001) %MON dynstat_theta_sd             =   4.3674132348177E+00
(PID.TID 0000.0001) %MON dynstat_theta_del2           =   5.0737359456835E-03
(PID.TID 0000.0001) %MON dynstat_salt_max             =   3.7428394957720E+01
(PID.TID 0000.0001) %MON dynstat_salt_min             =   2.9787941009979E+01
(PID.TID 0000.0001) %MON dynstat_salt_mean            =   3.4716339967158E+01
(PID.TID 0000.0001) %MON dynstat_salt_sd              =   2.9601119791065E-01
(PID.TID 0000.0001) %MON dynstat_salt_del2            =   1.0037557679780E-03
(PID.TID 0000.0001) %MON forcing_qnet_max             =   4.3322811889648E+02
(PID.TID 0000.0001) %MON forcing_qnet_min             =  -1.8375684712728E+02
(PID.TID 0000.0001) %MON forcing_qnet_mean            =  -1.6612621647629E+01
(PID.TID 0000.0001) %MON forcing_qnet_sd              =   1.1139030190430E+02
(PID.TID 0000.0001) %MON forcing_qnet_del2            =   1.0017615545299E+00
(PID.TID 0000.0001) %MON forcing_qsw_max              =   0.0000000000000E+00
(PID.TID 0000.0001) %MON forcing_qsw_min              =   0.0000000000000E+00
(PID.TID 0000.0001) %MON forcing_qsw_mean             =   0.0000000000000E+00
(PID.TID 0000.0001) %MON forcing_qsw_sd               =   0.0000000000000E+00
(PID.TID 0000.0001) %MON forcing_qsw_del2             =   0.0000000000000E+00
(PID.TID 0000.0001) %MON forcing_empmr_max            =   0.0000000000000E+00
(PID.TID 0000.0001) %MON forcing_empmr_min            =   0.0000000000000E+00
(PID.TID 0000.0001) %MON forcing_empmr_mean           =   0.0000000000000E+00
(PID.TID 0000.0001) %MON forcing_empmr_sd             =   0.0000000000000E+00
(PID.TID 0000.0001) %MON forcing_empmr_del2           =   0.0000000000000E+00
(PID.TID 0000.0001) %MON forcing_fu_max               =   2.6887837983668E-01
(PID.TID 0000.0001) %MON forcing_fu_min               =  -1.6256642357136E-01
(PID.TID 0000.0001) %MON forcing_fu_mean              =   1.6113132576788E-02
(PID.TID 0000.0001) %MON forcing_fu_sd                =   8.9930925771727E-02
(PID.TID 0000.0001) %MON forcing_fu_del2              =   6.4932870931958E-04
(PID.TID 0000.0001) %MON forcing_fv_max               =   2.1031758785248E-01
(PID.TID 0000.0001) %MON forcing_fv_min               =  -1.6129880440421E-01
(PID.TID 0000.0001) %MON forcing_fv_mean              =  -5.7002596655904E-03
(PID.TID 0000.0001) %MON forcing_fv_sd                =   4.4729351996876E-02
(PID.TID 0000.0001) %MON forcing_fv_del2              =   3.5050379167162E-04
(PID.TID 0000.0001) %MON trAdv_CFL_u_max              =   2.4560906090709E-02
(PID.TID 0000.0001) %MON trAdv_CFL_v_max              =   1.1253612206854E-02
(PID.TID 0000.0001) %MON trAdv_CFL_w_max              =   7.6864607367379E-02
(PID.TID 0000.0001) %MON advcfl_uvel_max              =   2.5424442810302E-02
(PID.TID 0000.0001) %MON advcfl_vvel_max              =   1.2881801865452E-02
(PID.TID 0000.0001) %MON advcfl_wvel_max              =   1.4843432820026E-01
(PID.TID 0000.0001) %MON advcfl_W_hf_max              =   6.7070855769200E-02
(PID.TID 0000.0001) %MON pe_b_mean                    =   1.5710854064921E-04
(PID.TID 0000.0001) %MON ke_max                       =   1.0171359919867E-02
(PID.TID 0000.0001) %MON ke_mean                      =   2.5010110618520E-04
(PID.TID 0000.0001) %MON ke_vol                       =   1.3226782436723E+18
(PID.TID 0000.0001) %MON vort_r_min                   =  -3.5032781322704E-07
(PID.TID 0000.0001) %MON vort_r_max                   =   5.5349717059295E-07
(PID.TID 0000.0001) %MON vort_a_mean                  =  -2.5205769750292E-05
(PID.TID 0000.0001) %MON vort_a_sd                    =   7.3401339698271E-05
(PID.TID 0000.0001) %MON vort_p_mean                  =  -3.1758670007095E-05
(PID.TID 0000.0001) %MON vort_p_sd                    =   1.3126008998026E-04
(PID.TID 0000.0001) %MON surfExpan_theta_mean         =   9.7183948207468E-05
(PID.TID 0000.0001) %MON surfExpan_salt_mean          =   5.6902938995641E-06
(PID.TID 0000.0001) // =======================================================
(PID.TID 0000.0001) // End MONITOR dynamic field statistics
(PID.TID 0000.0001) // =======================================================
(PID.TID 0000.0001)  EXF_SET_GEN: processing file: lev_sst.bin
(PID.TID 0000.0001)  EXF_SET_GEN:  myIter, count0, count1:        15     12      1
(PID.TID 0000.0001)  EXF_SET_GEN:  first, changed, fac:   F   F   0.250000000E+00
(PID.TID 0000.0001)  EXF_SET_GEN: processing file: lev_sss.bin
(PID.TID 0000.0001)  EXF_SET_GEN:  myIter, count0, count1:        15     12      1
(PID.TID 0000.0001)  EXF_SET_GEN:  first, changed, fac:   F   F   0.250000000E+00
(PID.TID 0000.0001)  EXF_SET_GEN: processing file: trenberth_taux.bin
(PID.TID 0000.0001)  EXF_SET_GEN:  myIter, count0, count1:        15     12      1
(PID.TID 0000.0001)  EXF_SET_GEN:  first, changed, fac:   F   F   0.250000000E+00
(PID.TID 0000.0001)  EXF_SET_GEN: processing file: trenberth_tauy.bin
(PID.TID 0000.0001)  EXF_SET_GEN:  myIter, count0, count1:        15     12      1
(PID.TID 0000.0001)  EXF_SET_GEN:  first, changed, fac:   F   F   0.250000000E+00
(PID.TID 0000.0001)  EXF_SET_GEN: processing file: ncep_qnet.bin
(PID.TID 0000.0001)  EXF_SET_GEN:  myIter, count0, count1:        15     12      1
(PID.TID 0000.0001)  EXF_SET_GEN:  first, changed, fac:   F   F   0.250000000E+00
(PID.TID 0000.0001) // =======================================================
(PID.TID 0000.0001) // Begin MONITOR EXF statistics
(PID.TID 0000.0001) // =======================================================
(PID.TID 0000.0001) %MON exf_tsnumber                 =                    15
(PID.TID 0000.0001) %MON exf_time_sec                 =   6.4800000000000E+05
(PID.TID 0000.0001) %MON exf_ustress_max              =   2.7221385156736E-01
(PID.TID 0000.0001) %MON exf_ustress_min              =  -1.6305079823360E-01
(PID.TID 0000.0001) %MON exf_ustress_mean             =   1.5062003582749E-02
(PID.TID 0000.0001) %MON exf_ustress_sd               =   8.8739216137461E-02
(PID.TID 0000.0001) %MON exf_ustress_del2             =   6.8298298974190E-04
(PID.TID 0000.0001) %MON exf_vstress_max              =   2.1395334589761E-01
(PID.TID 0000.0001) %MON exf_vstress_min              =  -1.6513795754872E-01
(PID.TID 0000.0001) %MON exf_vstress_mean             =  -5.9807397516799E-03
(PID.TID 0000.0001) %MON exf_vstress_sd               =   4.5858323168329E-02
(PID.TID 0000.0001) %MON exf_vstress_del2             =   4.2666485851295E-04
(PID.TID 0000.0001) %MON exf_hflux_max                =   4.3375221252441E+02
(PID.TID 0000.0001) %MON exf_hflux_min                =  -1.8352326583862E+02
(PID.TID 0000.0001) %MON exf_hflux_mean               =  -1.6606365669717E+01
(PID.TID 0000.0001) %MON exf_hflux_sd                 =   1.1129044586711E+02
(PID.TID 0000.0001) %MON exf_hflux_del2               =   1.1807379758327E+00
(PID.TID 0000.0001) %MON exf_climsst_max              =   2.9472395896912E+01
(PID.TID 0000.0001) %MON exf_climsst_min              =  -1.9000000000000E+00
(PID.TID 0000.0001) %MON exf_climsst_mean             =   1.8424659165810E+01
(PID.TID 0000.0001) %MON exf_climsst_sd               =   9.1889640804224E+00
(PID.TID 0000.0001) %MON exf_climsst_del2             =   2.4753368269815E-02
(PID.TID 0000.0001) %MON exf_climsss_max              =   3.7463460922241E+01
(PID.TID 0000.0001) %MON exf_climsss_min              =   2.9707099437714E+01
(PID.TID 0000.0001) %MON exf_climsss_mean             =   3.4848339274563E+01
(PID.TID 0000.0001) %MON exf_climsss_sd               =   9.6371328370904E-01
(PID.TID 0000.0001) %MON exf_climsss_del2             =   7.2388331023482E-03
(PID.TID 0000.0001) // =======================================================
(PID.TID 0000.0001) // End MONITOR EXF statistics
(PID.TID 0000.0001) // =======================================================
 cg2d: Sum(rhs),rhsMax =  -8.01136934569513E-13  9.79846944698148E+00
(PID.TID 0000.0001)      cg2d_init_res =   8.30578658434099E-01
(PID.TID 0000.0001)      cg2d_iters(min,last) =      -1      25
(PID.TID 0000.0001)      cg2d_last_res =   4.44751807083816E-14
(PID.TID 0000.0001) // =======================================================
(PID.TID 0000.0001) // Begin MONITOR dynamic field statistics
(PID.TID 0000.0001) // =======================================================
(PID.TID 0000.0001) %MON time_tsnumber                =                    16
(PID.TID 0000.0001) %MON time_secondsf                =   6.9120000000000E+05
(PID.TID 0000.0001) %MON dynstat_eta_max              =   1.1814567590012E+00
(PID.TID 0000.0001) %MON dynstat_eta_min              =  -1.1369175705178E+00
(PID.TID 0000.0001) %MON dynstat_eta_mean             =   5.0353355262482E-16
(PID.TID 0000.0001) %MON dynstat_eta_sd               =   3.5870395961714E-01
(PID.TID 0000.0001) %MON dynstat_eta_del2             =   2.0852766057407E-03
(PID.TID 0000.0001) %MON dynstat_uvel_max             =   1.4994541943654E-01
(PID.TID 0000.0001) %MON dynstat_uvel_min             =  -1.2682753888171E-01
(PID.TID 0000.0001) %MON dynstat_uvel_mean            =  -1.0111910427048E-02
(PID.TID 0000.0001) %MON dynstat_uvel_sd              =   1.6362774807334E-02
(PID.TID 0000.0001) %MON dynstat_uvel_del2            =   1.0906329758887E-04
(PID.TID 0000.0001) %MON dynstat_vvel_max             =   1.4210620244031E-01
(PID.TID 0000.0001) %MON dynstat_vvel_min             =  -1.0243117115197E-01
(PID.TID 0000.0001) %MON dynstat_vvel_mean            =   3.2811962250698E-03
(PID.TID 0000.0001) %MON dynstat_vvel_sd              =   1.3492911262775E-02
(PID.TID 0000.0001) %MON dynstat_vvel_del2            =   1.1374258081469E-04
(PID.TID 0000.0001) %MON dynstat_wvel_max             =   2.5157023663654E-04
(PID.TID 0000.0001) %MON dynstat_wvel_min             =  -3.3471813282721E-04
(PID.TID 0000.0001) %MON dynstat_wvel_mean            =   1.5031941780781E-21
(PID.TID 0000.0001) %MON dynstat_wvel_sd              =   3.0900242617928E-05
(PID.TID 0000.0001) %MON dynstat_wvel_del2            =   3.2536278873804E-07
(PID.TID 0000.0001) %MON dynstat_theta_max            =   2.9525364242308E+01
(PID.TID 0000.0001) %MON dynstat_theta_min            =  -2.0119895579144E+00
(PID.TID 0000.0001) %MON dynstat_theta_mean           =   3.5976739608038E+00
(PID.TID 0000.0001) %MON dynstat_theta_sd             =   4.3641880214569E+00
(PID.TID 0000.0001) %MON dynstat_theta_del2           =   5.0482391207147E-03
(PID.TID 0000.0001) %MON dynstat_salt_max             =   3.7426778350897E+01
(PID.TID 0000.0001) %MON dynstat_salt_min             =   2.9788203213899E+01
(PID.TID 0000.0001) %MON dynstat_salt_mean            =   3.4716284951743E+01
(PID.TID 0000.0001) %MON dynstat_salt_sd              =   2.9597695070398E-01
(PID.TID 0000.0001) %MON dynstat_salt_del2            =   1.0035218165651E-03
(PID.TID 0000.0001) %MON forcing_qnet_max             =   4.3375221252441E+02
(PID.TID 0000.0001) %MON forcing_qnet_min             =  -1.8352326583862E+02
(PID.TID 0000.0001) %MON forcing_qnet_mean            =  -1.6606365669717E+01
(PID.TID 0000.0001) %MON forcing_qnet_sd              =   1.1129044586711E+02
(PID.TID 0000.0001) %MON forcing_qnet_del2            =   1.0028712084450E+00
(PID.TID 0000.0001) %MON forcing_qsw_max              =   0.0000000000000E+00
(PID.TID 0000.0001) %MON forcing_qsw_min              =   0.0000000000000E+00
(PID.TID 0000.0001) %MON forcing_qsw_mean             =   0.0000000000000E+00
(PID.TID 0000.0001) %MON forcing_qsw_sd               =   0.0000000000000E+00
(PID.TID 0000.0001) %MON forcing_qsw_del2             =   0.0000000000000E+00
(PID.TID 0000.0001) %MON forcing_empmr_max            =   0.0000000000000E+00
(PID.TID 0000.0001) %MON forcing_empmr_min            =   0.0000000000000E+00
(PID.TID 0000.0001) %MON forcing_empmr_mean           =   0.0000000000000E+00
(PID.TID 0000.0001) %MON forcing_empmr_sd             =   0.0000000000000E+00
(PID.TID 0000.0001) %MON forcing_empmr_del2           =   0.0000000000000E+00
(PID.TID 0000.0001) %MON forcing_fu_max               =   2.6896443893202E-01
(PID.TID 0000.0001) %MON forcing_fu_min               =  -1.6300015337765E-01
(PID.TID 0000.0001) %MON forcing_fu_mean              =   1.6109037687347E-02
(PID.TID 0000.0001) %MON forcing_fu_sd                =   8.9959090783414E-02
(PID.TID 0000.0001) %MON forcing_fu_del2              =   6.5145229758450E-04
(PID.TID 0000.0001) %MON forcing_fv_max               =   2.1129359694896E-01
(PID.TID 0000.0001) %MON forcing_fv_min               =  -1.6187561655534E-01
(PID.TID 0000.0001) %MON forcing_fv_mean              =  -5.6646587448277E-03
(PID.TID 0000.0001) %MON forcing_fv_sd                =   4.4828228946290E-02
(PID.TID 0000.0001) %MON forcing_fv_del2              =   3.5168290300239E-04
(PID.TID 0000.0001) %MON trAdv_CFL_u_max              =   2.5429606696476E-02
(PID.TID 0000.0001) %MON trAdv_CFL_v_max              =   1.2256717471439E-02
(PID.TID 0000.0001) %MON trAdv_CFL_w_max              =   7.4217164100131E-02
(PID.TID 0000.0001) %MON advcfl_uvel_max              =   2.4888982762316E-02
(PID.TID 0000.0001) %MON advcfl_vvel_max              =   1.3804478012337E-02
(PID.TID 0000.0001) %MON advcfl_wvel_max              =   1.6028494095994E-01
(PID.TID 0000.0001) %MON advcfl_W_hf_max              =   6.5695154526299E-02
(PID.TID 0000.0001) %MON pe_b_mean                    =   1.6464689374254E-04
(PID.TID 0000.0001) %MON ke_max                       =   1.0938930232214E-02
(PID.TID 0000.0001) %MON ke_mean                      =   2.5466012243594E-04
(PID.TID 0000.0001) %MON ke_vol                       =   1.3226782436723E+18
(PID.TID 0000.0001) %MON vort_r_min                   =  -3.6925340223381E-07
(PID.TID 0000.0001) %MON vort_r_max                   =   5.2293420289181E-07
(PID.TID 0000.0001) %MON vort_a_mean                  =  -2.5205769712936E-05
(PID.TID 0000.0001) %MON vort_a_sd                    =   7.3401318340603E-05
(PID.TID 0000.0001) %MON vort_p_mean                  =  -3.1758669960027E-05
(PID.TID 0000.0001) %MON vort_p_sd                    =   1.3125999423776E-04
(PID.TID 0000.0001) %MON surfExpan_theta_mean         =   8.3608552166009E-05
(PID.TID 0000.0001) %MON surfExpan_salt_mean          =   4.3787770556065E-06
(PID.TID 0000.0001) // =======================================================
(PID.TID 0000.0001) // End MONITOR dynamic field statistics
(PID.TID 0000.0001) // =======================================================
(PID.TID 0000.0001)  EXF_SET_GEN: processing file: lev_sst.bin
(PID.TID 0000.0001)  EXF_SET_GEN:  myIter, count0, count1:        16     12      1
(PID.TID 0000.0001)  EXF_SET_GEN:  first, changed, fac:   F   F   0.233333333E+00
(PID.TID 0000.0001)  EXF_SET_GEN: processing file: lev_sss.bin
(PID.TID 0000.0001)  EXF_SET_GEN:  myIter, count0, count1:        16     12      1
(PID.TID 0000.0001)  EXF_SET_GEN:  first, changed, fac:   F   F   0.233333333E+00
(PID.TID 0000.0001)  EXF_SET_GEN: processing file: trenberth_taux.bin
(PID.TID 0000.0001)  EXF_SET_GEN:  myIter, count0, count1:        16     12      1
(PID.TID 0000.0001)  EXF_SET_GEN:  first, changed, fac:   F   F   0.233333333E+00
(PID.TID 0000.0001)  EXF_SET_GEN: processing file: trenberth_tauy.bin
(PID.TID 0000.0001)  EXF_SET_GEN:  myIter, count0, count1:        16     12      1
(PID.TID 0000.0001)  EXF_SET_GEN:  first, changed, fac:   F   F   0.233333333E+00
(PID.TID 0000.0001)  EXF_SET_GEN: processing file: ncep_qnet.bin
(PID.TID 0000.0001)  EXF_SET_GEN:  myIter, count0, count1:        16     12      1
(PID.TID 0000.0001)  EXF_SET_GEN:  first, changed, fac:   F   F   0.233333333E+00
(PID.TID 0000.0001) // =======================================================
(PID.TID 0000.0001) // Begin MONITOR EXF statistics
(PID.TID 0000.0001) // =======================================================
(PID.TID 0000.0001) %MON exf_tsnumber                 =                    16
(PID.TID 0000.0001) %MON exf_time_sec                 =   6.9120000000000E+05
(PID.TID 0000.0001) %MON exf_ustress_max              =   2.7202494423836E-01
(PID.TID 0000.0001) %MON exf_ustress_min              =  -1.6361511486272E-01
(PID.TID 0000.0001) %MON exf_ustress_mean             =   1.5059506612064E-02
(PID.TID 0000.0001) %MON exf_ustress_sd               =   8.8770735691907E-02
(PID.TID 0000.0001) %MON exf_ustress_del2             =   6.8516507964029E-04
(PID.TID 0000.0001) %MON exf_vstress_max              =   2.1465724478476E-01
(PID.TID 0000.0001) %MON exf_vstress_min              =  -1.6607417063788E-01
(PID.TID 0000.0001) %MON exf_vstress_mean             =  -5.9468105108856E-03
(PID.TID 0000.0001) %MON exf_vstress_sd               =   4.5959879933635E-02
(PID.TID 0000.0001) %MON exf_vstress_del2             =   4.2779503812246E-04
(PID.TID 0000.0001) %MON exf_hflux_max                =   4.3427630615234E+02
(PID.TID 0000.0001) %MON exf_hflux_min                =  -1.8328968454997E+02
(PID.TID 0000.0001) %MON exf_hflux_mean               =  -1.6600109691806E+01
(PID.TID 0000.0001) %MON exf_hflux_sd                 =   1.1119125063866E+02
(PID.TID 0000.0001) %MON exf_hflux_del2               =   1.1812744530831E+00
(PID.TID 0000.0001) %MON exf_climsst_max              =   2.9470486068726E+01
(PID.TID 0000.0001) %MON exf_climsst_min              =  -1.9000000000000E+00
(PID.TID 0000.0001) %MON exf_climsst_mean             =   1.8428653351222E+01
(PID.TID 0000.0001) %MON exf_climsst_sd               =   9.1879148612417E+00
(PID.TID 0000.0001) %MON exf_climsst_del2             =   2.4859380519662E-02
(PID.TID 0000.0001) %MON exf_climsss_max              =   3.7464272054036E+01
(PID.TID 0000.0001) %MON exf_climsss_min              =   2.9710144106547E+01
(PID.TID 0000.0001) %MON exf_climsss_mean             =   3.4848445007939E+01
(PID.TID 0000.0001) %MON exf_climsss_sd               =   9.6353849111854E-01
(PID.TID 0000.0001) %MON exf_climsss_del2             =   7.2754255077318E-03
(PID.TID 0000.0001) // =======================================================
(PID.TID 0000.0001) // End MONITOR EXF statistics
(PID.TID 0000.0001) // =======================================================
 cg2d: Sum(rhs),rhsMax =  -6.87450096847897E-13  9.86914019595683E+00
(PID.TID 0000.0001)      cg2d_init_res =   8.05960890017106E-01
(PID.TID 0000.0001)      cg2d_iters(min,last) =      -1      25
(PID.TID 0000.0001)      cg2d_last_res =   3.50754276163329E-14
(PID.TID 0000.0001) // =======================================================
(PID.TID 0000.0001) // Begin MONITOR dynamic field statistics
(PID.TID 0000.0001) // =======================================================
(PID.TID 0000.0001) %MON time_tsnumber                =                    17
(PID.TID 0000.0001) %MON time_secondsf                =   7.3440000000000E+05
(PID.TID 0000.0001) %MON dynstat_eta_max              =   1.1899232860506E+00
(PID.TID 0000.0001) %MON dynstat_eta_min              =  -1.1012163433119E+00
(PID.TID 0000.0001) %MON dynstat_eta_mean             =   4.3742213294566E-16
(PID.TID 0000.0001) %MON dynstat_eta_sd               =   3.6496672313997E-01
(PID.TID 0000.0001) %MON dynstat_eta_del2             =   2.0532196420271E-03
(PID.TID 0000.0001) %MON dynstat_uvel_max             =   1.5706219129993E-01
(PID.TID 0000.0001) %MON dynstat_uvel_min             =  -1.2514072588537E-01
(PID.TID 0000.0001) %MON dynstat_uvel_mean            =  -1.0042597864702E-02
(PID.TID 0000.0001) %MON dynstat_uvel_sd              =   1.6823829649426E-02
(PID.TID 0000.0001) %MON dynstat_uvel_del2            =   1.1023277728584E-04
(PID.TID 0000.0001) %MON dynstat_vvel_max             =   1.4781173829343E-01
(PID.TID 0000.0001) %MON dynstat_vvel_min             =  -1.0246817395062E-01
(PID.TID 0000.0001) %MON dynstat_vvel_mean            =   2.9645676751785E-03
(PID.TID 0000.0001) %MON dynstat_vvel_sd              =   1.3284233977459E-02
(PID.TID 0000.0001) %MON dynstat_vvel_del2            =   1.1218479868757E-04
(PID.TID 0000.0001) %MON dynstat_wvel_max             =   2.5710511245851E-04
(PID.TID 0000.0001) %MON dynstat_wvel_min             =  -3.2542984040521E-04
(PID.TID 0000.0001) %MON dynstat_wvel_mean            =  -2.8184890838965E-22
(PID.TID 0000.0001) %MON dynstat_wvel_sd              =   2.9774315951877E-05
(PID.TID 0000.0001) %MON dynstat_wvel_del2            =   3.0967221114023E-07
(PID.TID 0000.0001) %MON dynstat_theta_max            =   2.9490250388015E+01
(PID.TID 0000.0001) %MON dynstat_theta_min            =  -2.0079452462243E+00
(PID.TID 0000.0001) %MON dynstat_theta_mean           =   3.5968627173953E+00
(PID.TID 0000.0001) %MON dynstat_theta_sd             =   4.3612450766194E+00
(PID.TID 0000.0001) %MON dynstat_theta_del2           =   5.0244671423825E-03
(PID.TID 0000.0001) %MON dynstat_salt_max             =   3.7425229484186E+01
(PID.TID 0000.0001) %MON dynstat_salt_min             =   2.9788268028040E+01
(PID.TID 0000.0001) %MON dynstat_salt_mean            =   3.4716244461413E+01
(PID.TID 0000.0001) %MON dynstat_salt_sd              =   2.9594361311485E-01
(PID.TID 0000.0001) %MON dynstat_salt_del2            =   1.0032586799773E-03
(PID.TID 0000.0001) %MON forcing_qnet_max             =   4.3427630615234E+02
(PID.TID 0000.0001) %MON forcing_qnet_min             =  -1.8328968454997E+02
(PID.TID 0000.0001) %MON forcing_qnet_mean            =  -1.6600109691806E+01
(PID.TID 0000.0001) %MON forcing_qnet_sd              =   1.1119125063866E+02
(PID.TID 0000.0001) %MON forcing_qnet_del2            =   1.0040237369794E+00
(PID.TID 0000.0001) %MON forcing_qsw_max              =   0.0000000000000E+00
(PID.TID 0000.0001) %MON forcing_qsw_min              =   0.0000000000000E+00
(PID.TID 0000.0001) %MON forcing_qsw_mean             =   0.0000000000000E+00
(PID.TID 0000.0001) %MON forcing_qsw_sd               =   0.0000000000000E+00
(PID.TID 0000.0001) %MON forcing_qsw_del2             =   0.0000000000000E+00
(PID.TID 0000.0001) %MON forcing_empmr_max            =   0.0000000000000E+00
(PID.TID 0000.0001) %MON forcing_empmr_min            =   0.0000000000000E+00
(PID.TID 0000.0001) %MON forcing_empmr_mean           =   0.0000000000000E+00
(PID.TID 0000.0001) %MON forcing_empmr_sd             =   0.0000000000000E+00
(PID.TID 0000.0001) %MON forcing_empmr_del2           =   0.0000000000000E+00
(PID.TID 0000.0001) %MON forcing_fu_max               =   2.6905049802735E-01
(PID.TID 0000.0001) %MON forcing_fu_min               =  -1.6343388318395E-01
(PID.TID 0000.0001) %MON forcing_fu_mean              =   1.6104942797907E-02
(PID.TID 0000.0001) %MON forcing_fu_sd                =   8.9989876572472E-02
(PID.TID 0000.0001) %MON forcing_fu_del2              =   6.5368095600492E-04
(PID.TID 0000.0001) %MON forcing_fv_max               =   2.1226960604545E-01
(PID.TID 0000.0001) %MON forcing_fv_min               =  -1.6245242870646E-01
(PID.TID 0000.0001) %MON forcing_fv_mean              =  -5.6290578240649E-03
(PID.TID 0000.0001) %MON forcing_fv_sd                =   4.4930407537345E-02
(PID.TID 0000.0001) %MON forcing_fv_del2              =   3.5293832160030E-04
(PID.TID 0000.0001) %MON trAdv_CFL_u_max              =   2.4894037892724E-02
(PID.TID 0000.0001) %MON trAdv_CFL_v_max              =   1.3141827340112E-02
(PID.TID 0000.0001) %MON trAdv_CFL_w_max              =   8.0142470479970E-02
(PID.TID 0000.0001) %MON advcfl_uvel_max              =   2.2884178716130E-02
(PID.TID 0000.0001) %MON advcfl_vvel_max              =   1.4358725067570E-02
(PID.TID 0000.0001) %MON advcfl_wvel_max              =   1.6783772370260E-01
(PID.TID 0000.0001) %MON advcfl_W_hf_max              =   6.9050068476394E-02
(PID.TID 0000.0001) %MON pe_b_mean                    =   1.7044636222343E-04
(PID.TID 0000.0001) %MON ke_max                       =   1.1630885170456E-02
(PID.TID 0000.0001) %MON ke_mean                      =   2.5758044145899E-04
(PID.TID 0000.0001) %MON ke_vol                       =   1.3226782436723E+18
(PID.TID 0000.0001) %MON vort_r_min                   =  -3.9807721221934E-07
(PID.TID 0000.0001) %MON vort_r_max                   =   4.8080345652766E-07
(PID.TID 0000.0001) %MON vort_a_mean                  =  -2.5205769663768E-05
(PID.TID 0000.0001) %MON vort_a_sd                    =   7.3401321396156E-05
(PID.TID 0000.0001) %MON vort_p_mean                  =  -3.1758669898077E-05
(PID.TID 0000.0001) %MON vort_p_sd                    =   1.3125999982973E-04
(PID.TID 0000.0001) %MON surfExpan_theta_mean         =   7.0239420402961E-05
(PID.TID 0000.0001) %MON surfExpan_salt_mean          =   3.1270052222295E-06
(PID.TID 0000.0001) // =======================================================
(PID.TID 0000.0001) // End MONITOR dynamic field statistics
(PID.TID 0000.0001) // =======================================================
(PID.TID 0000.0001)  EXF_SET_GEN: processing file: lev_sst.bin
(PID.TID 0000.0001)  EXF_SET_GEN:  myIter, count0, count1:        17     12      1
(PID.TID 0000.0001)  EXF_SET_GEN:  first, changed, fac:   F   F   0.216666667E+00
(PID.TID 0000.0001)  EXF_SET_GEN: processing file: lev_sss.bin
(PID.TID 0000.0001)  EXF_SET_GEN:  myIter, count0, count1:        17     12      1
(PID.TID 0000.0001)  EXF_SET_GEN:  first, changed, fac:   F   F   0.216666667E+00
(PID.TID 0000.0001)  EXF_SET_GEN: processing file: trenberth_taux.bin
(PID.TID 0000.0001)  EXF_SET_GEN:  myIter, count0, count1:        17     12      1
(PID.TID 0000.0001)  EXF_SET_GEN:  first, changed, fac:   F   F   0.216666667E+00
(PID.TID 0000.0001)  EXF_SET_GEN: processing file: trenberth_tauy.bin
(PID.TID 0000.0001)  EXF_SET_GEN:  myIter, count0, count1:        17     12      1
(PID.TID 0000.0001)  EXF_SET_GEN:  first, changed, fac:   F   F   0.216666667E+00
(PID.TID 0000.0001)  EXF_SET_GEN: processing file: ncep_qnet.bin
(PID.TID 0000.0001)  EXF_SET_GEN:  myIter, count0, count1:        17     12      1
(PID.TID 0000.0001)  EXF_SET_GEN:  first, changed, fac:   F   F   0.216666667E+00
(PID.TID 0000.0001) // =======================================================
(PID.TID 0000.0001) // Begin MONITOR EXF statistics
(PID.TID 0000.0001) // =======================================================
(PID.TID 0000.0001) %MON exf_tsnumber                 =                    17
(PID.TID 0000.0001) %MON exf_time_sec                 =   7.3440000000000E+05
(PID.TID 0000.0001) %MON exf_ustress_max              =   2.7183603690937E-01
(PID.TID 0000.0001) %MON exf_ustress_min              =  -1.6417943149184E-01
(PID.TID 0000.0001) %MON exf_ustress_mean             =   1.5057009641379E-02
(PID.TID 0000.0001) %MON exf_ustress_sd               =   8.8804899657824E-02
(PID.TID 0000.0001) %MON exf_ustress_del2             =   6.8745701854360E-04
(PID.TID 0000.0001) %MON exf_vstress_max              =   2.1536114367191E-01
(PID.TID 0000.0001) %MON exf_vstress_min              =  -1.6701038372703E-01
(PID.TID 0000.0001) %MON exf_vstress_mean             =  -5.9128812700912E-03
(PID.TID 0000.0001) %MON exf_vstress_sd               =   4.6064880000471E-02
(PID.TID 0000.0001) %MON exf_vstress_del2             =   4.2901306133441E-04
(PID.TID 0000.0001) %MON exf_hflux_max                =   4.3480039978027E+02
(PID.TID 0000.0001) %MON exf_hflux_min                =  -1.8305610326131E+02
(PID.TID 0000.0001) %MON exf_hflux_mean               =  -1.6593853713894E+01
(PID.TID 0000.0001) %MON exf_hflux_sd                 =   1.1109271798907E+02
(PID.TID 0000.0001) %MON exf_hflux_del2               =   1.1818494271944E+00
(PID.TID 0000.0001) %MON exf_climsst_max              =   2.9468576240540E+01
(PID.TID 0000.0001) %MON exf_climsst_min              =  -1.9000000000000E+00
(PID.TID 0000.0001) %MON exf_climsst_mean             =   1.8432650504627E+01
(PID.TID 0000.0001) %MON exf_climsst_sd               =   9.1869237374456E+00
(PID.TID 0000.0001) %MON exf_climsst_del2             =   2.4974459915961E-02
(PID.TID 0000.0001) %MON exf_climsss_max              =   3.7465083185832E+01
(PID.TID 0000.0001) %MON exf_climsss_min              =   2.9713188775380E+01
(PID.TID 0000.0001) %MON exf_climsss_mean             =   3.4848550741315E+01
(PID.TID 0000.0001) %MON exf_climsss_sd               =   9.6338612905789E-01
(PID.TID 0000.0001) %MON exf_climsss_del2             =   7.3147127026616E-03
(PID.TID 0000.0001) // =======================================================
(PID.TID 0000.0001) // End MONITOR EXF statistics
(PID.TID 0000.0001) // =======================================================
 cg2d: Sum(rhs),rhsMax =  -8.89954776539525E-13  9.74754111279760E+00
(PID.TID 0000.0001)      cg2d_init_res =   7.98639449713581E-01
(PID.TID 0000.0001)      cg2d_iters(min,last) =      -1      25
(PID.TID 0000.0001)      cg2d_last_res =   2.87974581077205E-14
(PID.TID 0000.0001) // =======================================================
(PID.TID 0000.0001) // Begin MONITOR dynamic field statistics
(PID.TID 0000.0001) // =======================================================
(PID.TID 0000.0001) %MON time_tsnumber                =                    18
(PID.TID 0000.0001) %MON time_secondsf                =   7.7760000000000E+05
(PID.TID 0000.0001) %MON dynstat_eta_max              =   1.1761168465606E+00
(PID.TID 0000.0001) %MON dynstat_eta_min              =  -1.1115812625832E+00
(PID.TID 0000.0001) %MON dynstat_eta_mean             =   4.1478123579527E-16
(PID.TID 0000.0001) %MON dynstat_eta_sd               =   3.6938944621741E-01
(PID.TID 0000.0001) %MON dynstat_eta_del2             =   2.0260946932582E-03
(PID.TID 0000.0001) %MON dynstat_uvel_max             =   1.6306962483881E-01
(PID.TID 0000.0001) %MON dynstat_uvel_min             =  -1.3108763182983E-01
(PID.TID 0000.0001) %MON dynstat_uvel_mean            =  -9.8538618877640E-03
(PID.TID 0000.0001) %MON dynstat_uvel_sd              =   1.7188278629924E-02
(PID.TID 0000.0001) %MON dynstat_uvel_del2            =   1.1109930039824E-04
(PID.TID 0000.0001) %MON dynstat_vvel_max             =   1.4915410410588E-01
(PID.TID 0000.0001) %MON dynstat_vvel_min             =  -1.1329378653692E-01
(PID.TID 0000.0001) %MON dynstat_vvel_mean            =   2.6847864688498E-03
(PID.TID 0000.0001) %MON dynstat_vvel_sd              =   1.3135886372647E-02
(PID.TID 0000.0001) %MON dynstat_vvel_del2            =   1.1068073802093E-04
(PID.TID 0000.0001) %MON dynstat_wvel_max             =   2.6056039875055E-04
(PID.TID 0000.0001) %MON dynstat_wvel_min             =  -3.1324475613811E-04
(PID.TID 0000.0001) %MON dynstat_wvel_mean            =  -4.6974818064942E-22
(PID.TID 0000.0001) %MON dynstat_wvel_sd              =   2.8692911790132E-05
(PID.TID 0000.0001) %MON dynstat_wvel_del2            =   2.9511913142681E-07
(PID.TID 0000.0001) %MON dynstat_theta_max            =   2.9451777644839E+01
(PID.TID 0000.0001) %MON dynstat_theta_min            =  -2.0039742222070E+00
(PID.TID 0000.0001) %MON dynstat_theta_mean           =   3.5962010470114E+00
(PID.TID 0000.0001) %MON dynstat_theta_sd             =   4.3586113777338E+00
(PID.TID 0000.0001) %MON dynstat_theta_del2           =   5.0026619211259E-03
(PID.TID 0000.0001) %MON dynstat_salt_max             =   3.7423753698792E+01
(PID.TID 0000.0001) %MON dynstat_salt_min             =   2.9788219662103E+01
(PID.TID 0000.0001) %MON dynstat_salt_mean            =   3.4716217654588E+01
(PID.TID 0000.0001) %MON dynstat_salt_sd              =   2.9591219437252E-01
(PID.TID 0000.0001) %MON dynstat_salt_del2            =   1.0030594554921E-03
(PID.TID 0000.0001) %MON forcing_qnet_max             =   4.3480039978027E+02
(PID.TID 0000.0001) %MON forcing_qnet_min             =  -1.8305610326131E+02
(PID.TID 0000.0001) %MON forcing_qnet_mean            =  -1.6593853713894E+01
(PID.TID 0000.0001) %MON forcing_qnet_sd              =   1.1109271798907E+02
(PID.TID 0000.0001) %MON forcing_qnet_del2            =   1.0052189926600E+00
(PID.TID 0000.0001) %MON forcing_qsw_max              =   0.0000000000000E+00
(PID.TID 0000.0001) %MON forcing_qsw_min              =   0.0000000000000E+00
(PID.TID 0000.0001) %MON forcing_qsw_mean             =   0.0000000000000E+00
(PID.TID 0000.0001) %MON forcing_qsw_sd               =   0.0000000000000E+00
(PID.TID 0000.0001) %MON forcing_qsw_del2             =   0.0000000000000E+00
(PID.TID 0000.0001) %MON forcing_empmr_max            =   0.0000000000000E+00
(PID.TID 0000.0001) %MON forcing_empmr_min            =   0.0000000000000E+00
(PID.TID 0000.0001) %MON forcing_empmr_mean           =   0.0000000000000E+00
(PID.TID 0000.0001) %MON forcing_empmr_sd             =   0.0000000000000E+00
(PID.TID 0000.0001) %MON forcing_empmr_del2           =   0.0000000000000E+00
(PID.TID 0000.0001) %MON forcing_fu_max               =   2.6913655712269E-01
(PID.TID 0000.0001) %MON forcing_fu_min               =  -1.6386761299024E-01
(PID.TID 0000.0001) %MON forcing_fu_mean              =   1.6100847908467E-02
(PID.TID 0000.0001) %MON forcing_fu_sd                =   9.0023280450176E-02
(PID.TID 0000.0001) %MON forcing_fu_del2              =   6.5601361372519E-04
(PID.TID 0000.0001) %MON forcing_fv_max               =   2.1324561514193E-01
(PID.TID 0000.0001) %MON forcing_fv_min               =  -1.6302924085758E-01
(PID.TID 0000.0001) %MON forcing_fv_mean              =  -5.5934569033022E-03
(PID.TID 0000.0001) %MON forcing_fv_sd                =   4.5035865297484E-02
(PID.TID 0000.0001) %MON forcing_fv_del2              =   3.5426923623951E-04
(PID.TID 0000.0001) %MON trAdv_CFL_u_max              =   2.2888826656497E-02
(PID.TID 0000.0001) %MON trAdv_CFL_v_max              =   1.3660900587073E-02
(PID.TID 0000.0001) %MON trAdv_CFL_w_max              =   8.3918861851299E-02
(PID.TID 0000.0001) %MON advcfl_uvel_max              =   2.2803880390078E-02
(PID.TID 0000.0001) %MON advcfl_vvel_max              =   1.4489125141771E-02
(PID.TID 0000.0001) %MON advcfl_wvel_max              =   1.7029184416069E-01
(PID.TID 0000.0001) %MON advcfl_W_hf_max              =   6.9634608592792E-02
(PID.TID 0000.0001) %MON pe_b_mean                    =   1.7460238286039E-04
(PID.TID 0000.0001) %MON ke_max                       =   1.2246010068025E-02
(PID.TID 0000.0001) %MON ke_mean                      =   2.5903678523968E-04
(PID.TID 0000.0001) %MON ke_vol                       =   1.3226782436723E+18
(PID.TID 0000.0001) %MON vort_r_min                   =  -4.2790509035344E-07
(PID.TID 0000.0001) %MON vort_r_max                   =   4.2919062936659E-07
(PID.TID 0000.0001) %MON vort_a_mean                  =  -2.5205769609575E-05
(PID.TID 0000.0001) %MON vort_a_sd                    =   7.3401347192946E-05
(PID.TID 0000.0001) %MON vort_p_mean                  =  -3.1758669829795E-05
(PID.TID 0000.0001) %MON vort_p_sd                    =   1.3126009663568E-04
(PID.TID 0000.0001) %MON surfExpan_theta_mean         =   5.7371420300763E-05
(PID.TID 0000.0001) %MON surfExpan_salt_mean          =   1.9581635222938E-06
(PID.TID 0000.0001) // =======================================================
(PID.TID 0000.0001) // End MONITOR dynamic field statistics
(PID.TID 0000.0001) // =======================================================
(PID.TID 0000.0001)  EXF_SET_GEN: processing file: lev_sst.bin
(PID.TID 0000.0001)  EXF_SET_GEN:  myIter, count0, count1:        18     12      1
(PID.TID 0000.0001)  EXF_SET_GEN:  first, changed, fac:   F   F   0.200000000E+00
(PID.TID 0000.0001)  EXF_SET_GEN: processing file: lev_sss.bin
(PID.TID 0000.0001)  EXF_SET_GEN:  myIter, count0, count1:        18     12      1
(PID.TID 0000.0001)  EXF_SET_GEN:  first, changed, fac:   F   F   0.200000000E+00
(PID.TID 0000.0001)  EXF_SET_GEN: processing file: trenberth_taux.bin
(PID.TID 0000.0001)  EXF_SET_GEN:  myIter, count0, count1:        18     12      1
(PID.TID 0000.0001)  EXF_SET_GEN:  first, changed, fac:   F   F   0.200000000E+00
(PID.TID 0000.0001)  EXF_SET_GEN: processing file: trenberth_tauy.bin
(PID.TID 0000.0001)  EXF_SET_GEN:  myIter, count0, count1:        18     12      1
(PID.TID 0000.0001)  EXF_SET_GEN:  first, changed, fac:   F   F   0.200000000E+00
(PID.TID 0000.0001)  EXF_SET_GEN: processing file: ncep_qnet.bin
(PID.TID 0000.0001)  EXF_SET_GEN:  myIter, count0, count1:        18     12      1
(PID.TID 0000.0001)  EXF_SET_GEN:  first, changed, fac:   F   F   0.200000000E+00
(PID.TID 0000.0001) // =======================================================
(PID.TID 0000.0001) // Begin MONITOR EXF statistics
(PID.TID 0000.0001) // =======================================================
(PID.TID 0000.0001) %MON exf_tsnumber                 =                    18
(PID.TID 0000.0001) %MON exf_time_sec                 =   7.7760000000000E+05
(PID.TID 0000.0001) %MON exf_ustress_max              =   2.7164712958038E-01
(PID.TID 0000.0001) %MON exf_ustress_min              =  -1.6474374812096E-01
(PID.TID 0000.0001) %MON exf_ustress_mean             =   1.5054512670694E-02
(PID.TID 0000.0001) %MON exf_ustress_sd               =   8.8841704984498E-02
(PID.TID 0000.0001) %MON exf_ustress_del2             =   6.8985771158688E-04
(PID.TID 0000.0001) %MON exf_vstress_max              =   2.1606504255906E-01
(PID.TID 0000.0001) %MON exf_vstress_min              =  -1.6794659681618E-01
(PID.TID 0000.0001) %MON exf_vstress_mean             =  -5.8789520292968E-03
(PID.TID 0000.0001) %MON exf_vstress_sd               =   4.6173299878196E-02
(PID.TID 0000.0001) %MON exf_vstress_del2             =   4.3031818222083E-04
(PID.TID 0000.0001) %MON exf_hflux_max                =   4.3532449340820E+02
(PID.TID 0000.0001) %MON exf_hflux_min                =  -1.8282252197266E+02
(PID.TID 0000.0001) %MON exf_hflux_mean               =  -1.6587597735982E+01
(PID.TID 0000.0001) %MON exf_hflux_sd                 =   1.1099484968291E+02
(PID.TID 0000.0001) %MON exf_hflux_del2               =   1.1824628420090E+00
(PID.TID 0000.0001) %MON exf_climsst_max              =   2.9466666412354E+01
(PID.TID 0000.0001) %MON exf_climsst_min              =  -1.9000000000000E+00
(PID.TID 0000.0001) %MON exf_climsst_mean             =   1.8436651633338E+01
(PID.TID 0000.0001) %MON exf_climsst_sd               =   9.1859885022660E+00
(PID.TID 0000.0001) %MON exf_climsst_del2             =   2.5098071293118E-02
(PID.TID 0000.0001) %MON exf_climsss_max              =   3.7465894317627E+01
(PID.TID 0000.0001) %MON exf_climsss_min              =   2.9716233444214E+01
(PID.TID 0000.0001) %MON exf_climsss_mean             =   3.4848656474692E+01
(PID.TID 0000.0001) %MON exf_climsss_sd               =   9.6325620817086E-01
(PID.TID 0000.0001) %MON exf_climsss_del2             =   7.3566515137953E-03
(PID.TID 0000.0001) // =======================================================
(PID.TID 0000.0001) // End MONITOR EXF statistics
(PID.TID 0000.0001) // =======================================================
 cg2d: Sum(rhs),rhsMax =  -9.41469124882133E-13  9.45674092975690E+00
(PID.TID 0000.0001)      cg2d_init_res =   8.05540186696686E-01
(PID.TID 0000.0001)      cg2d_iters(min,last) =      -1      25
(PID.TID 0000.0001)      cg2d_last_res =   2.84084268820698E-14
(PID.TID 0000.0001) // =======================================================
(PID.TID 0000.0001) // Begin MONITOR dynamic field statistics
(PID.TID 0000.0001) // =======================================================
(PID.TID 0000.0001) %MON time_tsnumber                =                    19
(PID.TID 0000.0001) %MON time_secondsf                =   8.2080000000000E+05
(PID.TID 0000.0001) %MON dynstat_eta_max              =   1.1427653172048E+00
(PID.TID 0000.0001) %MON dynstat_eta_min              =  -1.0924938703347E+00
(PID.TID 0000.0001) %MON dynstat_eta_mean             =   5.0353355262482E-16
(PID.TID 0000.0001) %MON dynstat_eta_sd               =   3.7220468189373E-01
(PID.TID 0000.0001) %MON dynstat_eta_del2             =   2.0030155879703E-03
(PID.TID 0000.0001) %MON dynstat_uvel_max             =   1.6786998735425E-01
(PID.TID 0000.0001) %MON dynstat_uvel_min             =  -1.3657547250926E-01
(PID.TID 0000.0001) %MON dynstat_uvel_mean            =  -9.5597865395962E-03
(PID.TID 0000.0001) %MON dynstat_uvel_sd              =   1.7464774386451E-02
(PID.TID 0000.0001) %MON dynstat_uvel_del2            =   1.1174527815043E-04
(PID.TID 0000.0001) %MON dynstat_vvel_max             =   1.4578335341351E-01
(PID.TID 0000.0001) %MON dynstat_vvel_min             =  -1.2602300284815E-01
(PID.TID 0000.0001) %MON dynstat_vvel_mean            =   2.4543281084890E-03
(PID.TID 0000.0001) %MON dynstat_vvel_sd              =   1.3045280198712E-02
(PID.TID 0000.0001) %MON dynstat_vvel_del2            =   1.0942204293960E-04
(PID.TID 0000.0001) %MON dynstat_wvel_max             =   2.6205283718874E-04
(PID.TID 0000.0001) %MON dynstat_wvel_min             =  -2.9873242650503E-04
(PID.TID 0000.0001) %MON dynstat_wvel_mean            =  -1.5031941780781E-21
(PID.TID 0000.0001) %MON dynstat_wvel_sd              =   2.7701716537916E-05
(PID.TID 0000.0001) %MON dynstat_wvel_del2            =   2.8259837282560E-07
(PID.TID 0000.0001) %MON dynstat_theta_max            =   2.9442918960388E+01
(PID.TID 0000.0001) %MON dynstat_theta_min            =  -2.0004778888587E+00
(PID.TID 0000.0001) %MON dynstat_theta_mean           =   3.5956812759569E+00
(PID.TID 0000.0001) %MON dynstat_theta_sd             =   4.3563056743789E+00
(PID.TID 0000.0001) %MON dynstat_theta_del2           =   4.9829815062774E-03
(PID.TID 0000.0001) %MON dynstat_salt_max             =   3.7422347302350E+01
(PID.TID 0000.0001) %MON dynstat_salt_min             =   2.9788144843797E+01
(PID.TID 0000.0001) %MON dynstat_salt_mean            =   3.4716203436645E+01
(PID.TID 0000.0001) %MON dynstat_salt_sd              =   2.9588343573833E-01
(PID.TID 0000.0001) %MON dynstat_salt_del2            =   1.0029271987000E-03
(PID.TID 0000.0001) %MON forcing_qnet_max             =   4.3532449340820E+02
(PID.TID 0000.0001) %MON forcing_qnet_min             =  -1.8282252197266E+02
(PID.TID 0000.0001) %MON forcing_qnet_mean            =  -1.6587597735982E+01
(PID.TID 0000.0001) %MON forcing_qnet_sd              =   1.1099484968291E+02
(PID.TID 0000.0001) %MON forcing_qnet_del2            =   1.0064568232602E+00
(PID.TID 0000.0001) %MON forcing_qsw_max              =   0.0000000000000E+00
(PID.TID 0000.0001) %MON forcing_qsw_min              =   0.0000000000000E+00
(PID.TID 0000.0001) %MON forcing_qsw_mean             =   0.0000000000000E+00
(PID.TID 0000.0001) %MON forcing_qsw_sd               =   0.0000000000000E+00
(PID.TID 0000.0001) %MON forcing_qsw_del2             =   0.0000000000000E+00
(PID.TID 0000.0001) %MON forcing_empmr_max            =   0.0000000000000E+00
(PID.TID 0000.0001) %MON forcing_empmr_min            =   0.0000000000000E+00
(PID.TID 0000.0001) %MON forcing_empmr_mean           =   0.0000000000000E+00
(PID.TID 0000.0001) %MON forcing_empmr_sd             =   0.0000000000000E+00
(PID.TID 0000.0001) %MON forcing_empmr_del2           =   0.0000000000000E+00
(PID.TID 0000.0001) %MON forcing_fu_max               =   2.6922261621803E-01
(PID.TID 0000.0001) %MON forcing_fu_min               =  -1.6430134279653E-01
(PID.TID 0000.0001) %MON forcing_fu_mean              =   1.6096753019027E-02
(PID.TID 0000.0001) %MON forcing_fu_sd                =   9.0059299503299E-02
(PID.TID 0000.0001) %MON forcing_fu_del2              =   6.5844916544554E-04
(PID.TID 0000.0001) %MON forcing_fv_max               =   2.1422162423842E-01
(PID.TID 0000.0001) %MON forcing_fv_min               =  -1.6360605300870E-01
(PID.TID 0000.0001) %MON forcing_fv_mean              =  -5.5578559825394E-03
(PID.TID 0000.0001) %MON forcing_fv_sd                =   4.5144579246290E-02
(PID.TID 0000.0001) %MON forcing_fv_del2              =   3.5567479941551E-04
(PID.TID 0000.0001) %MON trAdv_CFL_u_max              =   2.2808512021282E-02
(PID.TID 0000.0001) %MON trAdv_CFL_v_max              =   1.3758072344570E-02
(PID.TID 0000.0001) %MON trAdv_CFL_w_max              =   8.5145922080346E-02
(PID.TID 0000.0001) %MON advcfl_uvel_max              =   2.3475169679787E-02
(PID.TID 0000.0001) %MON advcfl_vvel_max              =   1.4161683742177E-02
(PID.TID 0000.0001) %MON advcfl_wvel_max              =   1.6708442511384E-01
(PID.TID 0000.0001) %MON advcfl_W_hf_max              =   6.8982799836848E-02
(PID.TID 0000.0001) %MON pe_b_mean                    =   1.7727392629907E-04
(PID.TID 0000.0001) %MON ke_max                       =   1.2795160244009E-02
(PID.TID 0000.0001) %MON ke_mean                      =   2.5919936992521E-04
(PID.TID 0000.0001) %MON ke_vol                       =   1.3226782436723E+18
(PID.TID 0000.0001) %MON vort_r_min                   =  -4.4695114960277E-07
(PID.TID 0000.0001) %MON vort_r_max                   =   3.7947639437610E-07
(PID.TID 0000.0001) %MON vort_a_mean                  =  -2.5205769556634E-05
(PID.TID 0000.0001) %MON vort_a_sd                    =   7.3401393496785E-05
(PID.TID 0000.0001) %MON vort_p_mean                  =  -3.1758669763091E-05
(PID.TID 0000.0001) %MON vort_p_sd                    =   1.3126027073947E-04
(PID.TID 0000.0001) %MON surfExpan_theta_mean         =   4.5264307641033E-05
(PID.TID 0000.0001) %MON surfExpan_salt_mean          =   8.9086581023281E-07
(PID.TID 0000.0001) // =======================================================
(PID.TID 0000.0001) // End MONITOR dynamic field statistics
(PID.TID 0000.0001) // =======================================================
(PID.TID 0000.0001)  EXF_SET_GEN: processing file: lev_sst.bin
(PID.TID 0000.0001)  EXF_SET_GEN:  myIter, count0, count1:        19     12      1
(PID.TID 0000.0001)  EXF_SET_GEN:  first, changed, fac:   F   F   0.183333333E+00
(PID.TID 0000.0001)  EXF_SET_GEN: processing file: lev_sss.bin
(PID.TID 0000.0001)  EXF_SET_GEN:  myIter, count0, count1:        19     12      1
(PID.TID 0000.0001)  EXF_SET_GEN:  first, changed, fac:   F   F   0.183333333E+00
(PID.TID 0000.0001)  EXF_SET_GEN: processing file: trenberth_taux.bin
(PID.TID 0000.0001)  EXF_SET_GEN:  myIter, count0, count1:        19     12      1
(PID.TID 0000.0001)  EXF_SET_GEN:  first, changed, fac:   F   F   0.183333333E+00
(PID.TID 0000.0001)  EXF_SET_GEN: processing file: trenberth_tauy.bin
(PID.TID 0000.0001)  EXF_SET_GEN:  myIter, count0, count1:        19     12      1
(PID.TID 0000.0001)  EXF_SET_GEN:  first, changed, fac:   F   F   0.183333333E+00
(PID.TID 0000.0001)  EXF_SET_GEN: processing file: ncep_qnet.bin
(PID.TID 0000.0001)  EXF_SET_GEN:  myIter, count0, count1:        19     12      1
(PID.TID 0000.0001)  EXF_SET_GEN:  first, changed, fac:   F   F   0.183333333E+00
(PID.TID 0000.0001) // =======================================================
(PID.TID 0000.0001) // Begin MONITOR EXF statistics
(PID.TID 0000.0001) // =======================================================
(PID.TID 0000.0001) %MON exf_tsnumber                 =                    19
(PID.TID 0000.0001) %MON exf_time_sec                 =   8.2080000000000E+05
(PID.TID 0000.0001) %MON exf_ustress_max              =   2.7145822225139E-01
(PID.TID 0000.0001) %MON exf_ustress_min              =  -1.6530806475009E-01
(PID.TID 0000.0001) %MON exf_ustress_mean             =   1.5052015700009E-02
(PID.TID 0000.0001) %MON exf_ustress_sd               =   8.8881148390598E-02
(PID.TID 0000.0001) %MON exf_ustress_del2             =   6.9236602749671E-04
(PID.TID 0000.0001) %MON exf_vstress_max              =   2.1676894144621E-01
(PID.TID 0000.0001) %MON exf_vstress_min              =  -1.6888280990534E-01
(PID.TID 0000.0001) %MON exf_vstress_mean             =  -5.8450227885025E-03
(PID.TID 0000.0001) %MON exf_vstress_sd               =   4.6285115534762E-02
(PID.TID 0000.0001) %MON exf_vstress_del2             =   4.3170961085568E-04
(PID.TID 0000.0001) %MON exf_hflux_max                =   4.3584858703613E+02
(PID.TID 0000.0001) %MON exf_hflux_min                =  -1.8258894068400E+02
(PID.TID 0000.0001) %MON exf_hflux_mean               =  -1.6581341758071E+01
(PID.TID 0000.0001) %MON exf_hflux_sd                 =   1.1089764747903E+02
(PID.TID 0000.0001) %MON exf_hflux_del2               =   1.1831146377355E+00
(PID.TID 0000.0001) %MON exf_climsst_max              =   2.9464756584167E+01
(PID.TID 0000.0001) %MON exf_climsst_min              =  -1.9000000000000E+00
(PID.TID 0000.0001) %MON exf_climsst_mean             =   1.8440652762048E+01
(PID.TID 0000.0001) %MON exf_climsst_sd               =   9.1851179753778E+00
(PID.TID 0000.0001) %MON exf_climsst_del2             =   2.5230409614922E-02
(PID.TID 0000.0001) %MON exf_climsss_max              =   3.7466705449422E+01
(PID.TID 0000.0001) %MON exf_climsss_min              =   2.9719278113047E+01
(PID.TID 0000.0001) %MON exf_climsss_mean             =   3.4848762208068E+01
(PID.TID 0000.0001) %MON exf_climsss_sd               =   9.6314873753884E-01
(PID.TID 0000.0001) %MON exf_climsss_del2             =   7.4011968651968E-03
(PID.TID 0000.0001) // =======================================================
(PID.TID 0000.0001) // End MONITOR EXF statistics
(PID.TID 0000.0001) // =======================================================
 cg2d: Sum(rhs),rhsMax =  -8.95283847057726E-13  9.19886329325316E+00
(PID.TID 0000.0001)      cg2d_init_res =   8.09162355206768E-01
(PID.TID 0000.0001)      cg2d_iters(min,last) =      -1      25
(PID.TID 0000.0001)      cg2d_last_res =   3.17529415333770E-14
(PID.TID 0000.0001) // =======================================================
(PID.TID 0000.0001) // Begin MONITOR dynamic field statistics
(PID.TID 0000.0001) // =======================================================
(PID.TID 0000.0001) %MON time_tsnumber                =                    20
(PID.TID 0000.0001) %MON time_secondsf                =   8.6400000000000E+05
(PID.TID 0000.0001) %MON dynstat_eta_max              =   1.1037017559251E+00
(PID.TID 0000.0001) %MON dynstat_eta_min              =  -1.0465084671562E+00
(PID.TID 0000.0001) %MON dynstat_eta_mean             =   5.3613644452139E-16
(PID.TID 0000.0001) %MON dynstat_eta_sd               =   3.7365803766428E-01
(PID.TID 0000.0001) %MON dynstat_eta_del2             =   1.9832650401494E-03
(PID.TID 0000.0001) %MON dynstat_uvel_max             =   1.7139155750392E-01
(PID.TID 0000.0001) %MON dynstat_uvel_min             =  -1.4158185285213E-01
(PID.TID 0000.0001) %MON dynstat_uvel_mean            =  -9.1764057132493E-03
(PID.TID 0000.0001) %MON dynstat_uvel_sd              =   1.7662016838506E-02
(PID.TID 0000.0001) %MON dynstat_uvel_del2            =   1.1224554634143E-04
(PID.TID 0000.0001) %MON dynstat_vvel_max             =   1.3759863045232E-01
(PID.TID 0000.0001) %MON dynstat_vvel_min             =  -1.3632385796074E-01
(PID.TID 0000.0001) %MON dynstat_vvel_mean            =   2.2817853119031E-03
(PID.TID 0000.0001) %MON dynstat_vvel_sd              =   1.3004335734661E-02
(PID.TID 0000.0001) %MON dynstat_vvel_del2            =   1.0853666006353E-04
(PID.TID 0000.0001) %MON dynstat_wvel_max             =   2.6182363466135E-04
(PID.TID 0000.0001) %MON dynstat_wvel_min             =  -2.8228683449463E-04
(PID.TID 0000.0001) %MON dynstat_wvel_mean            =   3.0063883561563E-21
(PID.TID 0000.0001) %MON dynstat_wvel_sd              =   2.6835520651837E-05
(PID.TID 0000.0001) %MON dynstat_wvel_del2            =   2.7276163686540E-07
(PID.TID 0000.0001) %MON dynstat_theta_max            =   2.9431123479755E+01
(PID.TID 0000.0001) %MON dynstat_theta_min            =  -1.9977203194324E+00
(PID.TID 0000.0001) %MON dynstat_theta_mean           =   3.5952930512833E+00
(PID.TID 0000.0001) %MON dynstat_theta_sd             =   4.3543399132917E+00
(PID.TID 0000.0001) %MON dynstat_theta_del2           =   4.9655306161226E-03
(PID.TID 0000.0001) %MON dynstat_salt_max             =   3.7421236169870E+01
(PID.TID 0000.0001) %MON dynstat_salt_min             =   2.9788128386841E+01
(PID.TID 0000.0001) %MON dynstat_salt_mean            =   3.4716200535591E+01
(PID.TID 0000.0001) %MON dynstat_salt_sd              =   2.9585769443557E-01
(PID.TID 0000.0001) %MON dynstat_salt_del2            =   1.0028771875626E-03
(PID.TID 0000.0001) %MON forcing_qnet_max             =   4.3584858703613E+02
(PID.TID 0000.0001) %MON forcing_qnet_min             =  -1.8258894068400E+02
(PID.TID 0000.0001) %MON forcing_qnet_mean            =  -1.6581341758071E+01
(PID.TID 0000.0001) %MON forcing_qnet_sd              =   1.1089764747903E+02
(PID.TID 0000.0001) %MON forcing_qnet_del2            =   1.0077370718922E+00
(PID.TID 0000.0001) %MON forcing_qsw_max              =   0.0000000000000E+00
(PID.TID 0000.0001) %MON forcing_qsw_min              =   0.0000000000000E+00
(PID.TID 0000.0001) %MON forcing_qsw_mean             =   0.0000000000000E+00
(PID.TID 0000.0001) %MON forcing_qsw_sd               =   0.0000000000000E+00
(PID.TID 0000.0001) %MON forcing_qsw_del2             =   0.0000000000000E+00
(PID.TID 0000.0001) %MON forcing_empmr_max            =   0.0000000000000E+00
(PID.TID 0000.0001) %MON forcing_empmr_min            =   0.0000000000000E+00
(PID.TID 0000.0001) %MON forcing_empmr_mean           =   0.0000000000000E+00
(PID.TID 0000.0001) %MON forcing_empmr_sd             =   0.0000000000000E+00
(PID.TID 0000.0001) %MON forcing_empmr_del2           =   0.0000000000000E+00
(PID.TID 0000.0001) %MON forcing_fu_max               =   2.6930867531337E-01
(PID.TID 0000.0001) %MON forcing_fu_min               =  -1.6473507260283E-01
(PID.TID 0000.0001) %MON forcing_fu_mean              =   1.6092658129587E-02
(PID.TID 0000.0001) %MON forcing_fu_sd                =   9.0097930595384E-02
(PID.TID 0000.0001) %MON forcing_fu_del2              =   6.6098647375946E-04
(PID.TID 0000.0001) %MON forcing_fv_max               =   2.1519763333490E-01
(PID.TID 0000.0001) %MON forcing_fv_min               =  -1.6418286515982E-01
(PID.TID 0000.0001) %MON forcing_fv_mean              =  -5.5222550617767E-03
(PID.TID 0000.0001) %MON forcing_fv_sd                =   4.5256525917996E-02
(PID.TID 0000.0001) %MON forcing_fv_del2              =   3.5715412980204E-04
(PID.TID 0000.0001) %MON trAdv_CFL_u_max              =   2.3479937654646E-02
(PID.TID 0000.0001) %MON trAdv_CFL_v_max              =   1.3398908905577E-02
(PID.TID 0000.0001) %MON trAdv_CFL_w_max              =   8.3542212556918E-02
(PID.TID 0000.0001) %MON advcfl_uvel_max              =   2.3967630888045E-02
(PID.TID 0000.0001) %MON advcfl_vvel_max              =   1.3366603540085E-02
(PID.TID 0000.0001) %MON advcfl_wvel_max              =   1.5793691630753E-01
(PID.TID 0000.0001) %MON advcfl_W_hf_max              =   6.6212088517119E-02
(PID.TID 0000.0001) %MON pe_b_mean                    =   1.7866103993119E-04
(PID.TID 0000.0001) %MON ke_max                       =   1.3451825389541E-02
(PID.TID 0000.0001) %MON ke_mean                      =   2.5823799332728E-04
(PID.TID 0000.0001) %MON ke_vol                       =   1.3226782436723E+18
(PID.TID 0000.0001) %MON vort_r_min                   =  -4.5416730623137E-07
(PID.TID 0000.0001) %MON vort_r_max                   =   3.8743418192837E-07
(PID.TID 0000.0001) %MON vort_a_mean                  =  -2.5205769510091E-05
(PID.TID 0000.0001) %MON vort_a_sd                    =   7.3401457679960E-05
(PID.TID 0000.0001) %MON vort_p_mean                  =  -3.1758669704447E-05
(PID.TID 0000.0001) %MON vort_p_sd                    =   1.3126050618523E-04
(PID.TID 0000.0001) %MON surfExpan_theta_mean         =   3.4146249326712E-05
(PID.TID 0000.0001) %MON surfExpan_salt_mean          =  -5.8519228352983E-08
(PID.TID 0000.0001) // =======================================================
(PID.TID 0000.0001) // End MONITOR dynamic field statistics
(PID.TID 0000.0001) // =======================================================
(PID.TID 0000.0001) // Time-average data written, t-step        20
(PID.TID 0000.0001) 
 Computing Diagnostic #    236  FrzForcT     Counter:      20   Parms: SM      MR      
(PID.TID 0000.0001) %CHECKPOINT        20 ckptA
(PID.TID 0000.0001)   Seconds in section "ALL                    [THE_MODEL_MAIN]":
(PID.TID 0000.0001)           User time:   16.965421837288886
(PID.TID 0000.0001)         System time:  8.09869989752769470E-002
(PID.TID 0000.0001)     Wall clock time:   17.119445085525513
(PID.TID 0000.0001)          No. starts:           1
(PID.TID 0000.0001)           No. stops:           1
(PID.TID 0000.0001)   Seconds in section "INITIALISE_FIXED       [THE_MODEL_MAIN]":
(PID.TID 0000.0001)           User time:  9.49849975295364857E-002
(PID.TID 0000.0001)         System time:  9.99800022691488266E-003
(PID.TID 0000.0001)     Wall clock time:  0.13144707679748535
(PID.TID 0000.0001)          No. starts:           1
(PID.TID 0000.0001)           No. stops:           1
(PID.TID 0000.0001)   Seconds in section "THE_MAIN_LOOP          [THE_MODEL_MAIN]":
(PID.TID 0000.0001)           User time:   16.870436839759350
(PID.TID 0000.0001)         System time:  7.09889987483620644E-002
(PID.TID 0000.0001)     Wall clock time:   16.987962007522583
(PID.TID 0000.0001)          No. starts:           1
(PID.TID 0000.0001)           No. stops:           1
(PID.TID 0000.0001)   Seconds in section "INITIALISE_VARIA    [THE_MAIN_LOOP]":
(PID.TID 0000.0001)           User time:  0.23896401375532150
(PID.TID 0000.0001)         System time:  1.59979993477463722E-002
(PID.TID 0000.0001)     Wall clock time:  0.25505304336547852
(PID.TID 0000.0001)          No. starts:           1
(PID.TID 0000.0001)           No. stops:           1
(PID.TID 0000.0001)   Seconds in section "MAIN LOOP           [THE_MAIN_LOOP]":
(PID.TID 0000.0001)           User time:   16.631472826004028
(PID.TID 0000.0001)         System time:  5.49909994006156921E-002
(PID.TID 0000.0001)     Wall clock time:   16.732880830764771
(PID.TID 0000.0001)          No. starts:           1
(PID.TID 0000.0001)           No. stops:           1
(PID.TID 0000.0001)   Seconds in section "MAIN_DO_LOOP        [THE_MAIN_LOOP]":
(PID.TID 0000.0001)           User time:   16.631472826004028
(PID.TID 0000.0001)         System time:  5.49909994006156921E-002
(PID.TID 0000.0001)     Wall clock time:   16.732694625854492
(PID.TID 0000.0001)          No. starts:          20
(PID.TID 0000.0001)           No. stops:          20
(PID.TID 0000.0001)   Seconds in section "FORWARD_STEP        [MAIN_DO_LOOP]":
(PID.TID 0000.0001)           User time:   16.631472826004028
(PID.TID 0000.0001)         System time:  5.49909994006156921E-002
(PID.TID 0000.0001)     Wall clock time:   16.732342004776001
(PID.TID 0000.0001)          No. starts:          20
(PID.TID 0000.0001)           No. stops:          20
(PID.TID 0000.0001)   Seconds in section "DO_STATEVARS_DIAGS  [FORWARD_STEP]":
(PID.TID 0000.0001)           User time:  9.99784469604492188E-003
(PID.TID 0000.0001)         System time:   0.0000000000000000
(PID.TID 0000.0001)     Wall clock time:  9.29570198059082031E-003
(PID.TID 0000.0001)          No. starts:          40
(PID.TID 0000.0001)           No. stops:          40
(PID.TID 0000.0001)   Seconds in section "LOAD_FIELDS_DRIVER  [FORWARD_STEP]":
(PID.TID 0000.0001)           User time:  0.20596995949745178
(PID.TID 0000.0001)         System time:  9.98999923467636108E-004
(PID.TID 0000.0001)     Wall clock time:  0.20620179176330566
(PID.TID 0000.0001)          No. starts:          20
(PID.TID 0000.0001)           No. stops:          20
(PID.TID 0000.0001)   Seconds in section "EXF_GETFORCING     [LOAD_FLDS_DRIVER]":
(PID.TID 0000.0001)           User time:  0.20596995949745178
(PID.TID 0000.0001)         System time:  9.98999923467636108E-004
(PID.TID 0000.0001)     Wall clock time:  0.20547628402709961
(PID.TID 0000.0001)          No. starts:          20
(PID.TID 0000.0001)           No. stops:          20
(PID.TID 0000.0001)   Seconds in section "EXTERNAL_FLDS_LOAD [LOAD_FLDS_DRIVER]":
(PID.TID 0000.0001)           User time:   0.0000000000000000
(PID.TID 0000.0001)         System time:   0.0000000000000000
(PID.TID 0000.0001)     Wall clock time:  1.85012817382812500E-004
(PID.TID 0000.0001)          No. starts:          20
(PID.TID 0000.0001)           No. stops:          20
(PID.TID 0000.0001)   Seconds in section "DO_ATMOSPHERIC_PHYS [FORWARD_STEP]":
(PID.TID 0000.0001)           User time:   0.0000000000000000
(PID.TID 0000.0001)         System time:   0.0000000000000000
(PID.TID 0000.0001)     Wall clock time:  1.83820724487304688E-004
(PID.TID 0000.0001)          No. starts:          20
(PID.TID 0000.0001)           No. stops:          20
(PID.TID 0000.0001)   Seconds in section "DO_OCEANIC_PHYS     [FORWARD_STEP]":
(PID.TID 0000.0001)           User time:   2.1296766698360443
(PID.TID 0000.0001)         System time:  5.99900260567665100E-003
(PID.TID 0000.0001)     Wall clock time:   2.1412723064422607
(PID.TID 0000.0001)          No. starts:          20
(PID.TID 0000.0001)           No. stops:          20
(PID.TID 0000.0001)   Seconds in section "THERMODYNAMICS      [FORWARD_STEP]":
(PID.TID 0000.0001)           User time:   4.4493250846862793
(PID.TID 0000.0001)         System time:  1.69980004429817200E-002
(PID.TID 0000.0001)     Wall clock time:   4.4769654273986816
(PID.TID 0000.0001)          No. starts:          20
(PID.TID 0000.0001)           No. stops:          20
(PID.TID 0000.0001)   Seconds in section "DYNAMICS            [FORWARD_STEP]":
(PID.TID 0000.0001)           User time:   5.4781668186187744
(PID.TID 0000.0001)         System time:  1.99900008738040924E-003
(PID.TID 0000.0001)     Wall clock time:   5.4965860843658447
(PID.TID 0000.0001)          No. starts:          20
(PID.TID 0000.0001)           No. stops:          20
(PID.TID 0000.0001)   Seconds in section "SOLVE_FOR_PRESSURE  [FORWARD_STEP]":
(PID.TID 0000.0001)           User time:  0.99784898757934570
(PID.TID 0000.0001)         System time:   0.0000000000000000
(PID.TID 0000.0001)     Wall clock time:  0.99655103683471680
(PID.TID 0000.0001)          No. starts:          20
(PID.TID 0000.0001)           No. stops:          20
(PID.TID 0000.0001)   Seconds in section "MOM_CORRECTION_STEP [FORWARD_STEP]":
(PID.TID 0000.0001)           User time:  0.11198019981384277
(PID.TID 0000.0001)         System time:   0.0000000000000000
(PID.TID 0000.0001)     Wall clock time:  0.11292219161987305
(PID.TID 0000.0001)          No. starts:          20
(PID.TID 0000.0001)           No. stops:          20
(PID.TID 0000.0001)   Seconds in section "INTEGR_CONTINUITY   [FORWARD_STEP]":
(PID.TID 0000.0001)           User time:  0.20497083663940430
(PID.TID 0000.0001)         System time:   0.0000000000000000
(PID.TID 0000.0001)     Wall clock time:  0.20371508598327637
(PID.TID 0000.0001)          No. starts:          20
(PID.TID 0000.0001)           No. stops:          20
(PID.TID 0000.0001)   Seconds in section "TRC_CORRECTION_STEP [FORWARD_STEP]":
(PID.TID 0000.0001)           User time:   0.0000000000000000
(PID.TID 0000.0001)         System time:   0.0000000000000000
(PID.TID 0000.0001)     Wall clock time:  1.90019607543945313E-004
(PID.TID 0000.0001)          No. starts:          20
(PID.TID 0000.0001)           No. stops:          20
(PID.TID 0000.0001)   Seconds in section "BLOCKING_EXCHANGES  [FORWARD_STEP]":
(PID.TID 0000.0001)           User time:  7.59887695312500000E-002
(PID.TID 0000.0001)         System time:   0.0000000000000000
(PID.TID 0000.0001)     Wall clock time:  7.66110420227050781E-002
(PID.TID 0000.0001)          No. starts:          20
(PID.TID 0000.0001)           No. stops:          20
(PID.TID 0000.0001)   Seconds in section "DO_STATEVARS_TAVE   [FORWARD_STEP]":
(PID.TID 0000.0001)           User time:  0.97384870052337646
(PID.TID 0000.0001)         System time:   0.0000000000000000
(PID.TID 0000.0001)     Wall clock time:  0.97860884666442871
(PID.TID 0000.0001)          No. starts:          20
(PID.TID 0000.0001)           No. stops:          20
(PID.TID 0000.0001)   Seconds in section "MONITOR             [FORWARD_STEP]":
(PID.TID 0000.0001)           User time:   1.7107423543930054
(PID.TID 0000.0001)         System time:  5.99899701774120331E-003
(PID.TID 0000.0001)     Wall clock time:   1.7194719314575195
(PID.TID 0000.0001)          No. starts:          20
(PID.TID 0000.0001)           No. stops:          20
(PID.TID 0000.0001)   Seconds in section "DO_THE_MODEL_IO     [FORWARD_STEP]":
(PID.TID 0000.0001)           User time:  0.22696352005004883
(PID.TID 0000.0001)         System time:  1.49979963898658752E-002
(PID.TID 0000.0001)     Wall clock time:  0.25107479095458984
(PID.TID 0000.0001)          No. starts:          20
(PID.TID 0000.0001)           No. stops:          20
(PID.TID 0000.0001)   Seconds in section "DO_WRITE_PICKUP     [FORWARD_STEP]":
(PID.TID 0000.0001)           User time:  5.29937744140625000E-002
(PID.TID 0000.0001)         System time:  6.99900090694427490E-003
(PID.TID 0000.0001)     Wall clock time:  5.94503879547119141E-002
(PID.TID 0000.0001)          No. starts:          20
(PID.TID 0000.0001)           No. stops:          20
(PID.TID 0000.0001) // ======================================================
(PID.TID 0000.0001) // Tile <-> Tile communication statistics
(PID.TID 0000.0001) // ======================================================
(PID.TID 0000.0001) // o Tile number: 000001
(PID.TID 0000.0001) //         No. X exchanges =              0
(PID.TID 0000.0001) //            Max. X spins =              0
(PID.TID 0000.0001) //            Min. X spins =     1000000000
(PID.TID 0000.0001) //          Total. X spins =              0
(PID.TID 0000.0001) //            Avg. X spins =       0.00E+00
(PID.TID 0000.0001) //         No. Y exchanges =              0
(PID.TID 0000.0001) //            Max. Y spins =              0
(PID.TID 0000.0001) //            Min. Y spins =     1000000000
(PID.TID 0000.0001) //          Total. Y spins =              0
(PID.TID 0000.0001) //            Avg. Y spins =       0.00E+00
(PID.TID 0000.0001) // o Tile number: 000002
(PID.TID 0000.0001) //         No. X exchanges =              0
(PID.TID 0000.0001) //            Max. X spins =              0
(PID.TID 0000.0001) //            Min. X spins =     1000000000
(PID.TID 0000.0001) //          Total. X spins =              0
(PID.TID 0000.0001) //            Avg. X spins =       0.00E+00
(PID.TID 0000.0001) //         No. Y exchanges =              0
(PID.TID 0000.0001) //            Max. Y spins =              0
(PID.TID 0000.0001) //            Min. Y spins =     1000000000
(PID.TID 0000.0001) //          Total. Y spins =              0
(PID.TID 0000.0001) //            Avg. Y spins =       0.00E+00
(PID.TID 0000.0001) // o Thread number: 000001
(PID.TID 0000.0001) //            No. barriers =           8096
(PID.TID 0000.0001) //      Max. barrier spins =              1
(PID.TID 0000.0001) //      Min. barrier spins =              1
(PID.TID 0000.0001) //     Total barrier spins =           8096
(PID.TID 0000.0001) //      Avg. barrier spins =       1.00E+00
PROGRAM MAIN: Execution ended Normally
