(PID.TID 0000.0001) 
(PID.TID 0000.0001) // ======================================================
(PID.TID 0000.0001) //                      MITgcm UV
(PID.TID 0000.0001) //                      =========
(PID.TID 0000.0001) // ======================================================
(PID.TID 0000.0001) // execution environment starting up...
(PID.TID 0000.0001) 
(PID.TID 0000.0001) // MITgcmUV version:  checkpoint64t
(PID.TID 0000.0001) // Build user:        jmc
(PID.TID 0000.0001) // Build host:        baudelaire
(PID.TID 0000.0001) // Build date:        Wed Feb 12 10:27:08 EST 2014
(PID.TID 0000.0001) 
(PID.TID 0000.0001) // =======================================================
(PID.TID 0000.0001) // Execution Environment parameter file "eedata"
(PID.TID 0000.0001) // =======================================================
(PID.TID 0000.0001) ># Example "eedata" file
(PID.TID 0000.0001) ># Lines beginning "#" are comments
(PID.TID 0000.0001) ># nTx - No. threads per process in X
(PID.TID 0000.0001) ># nTy - No. threads per process in Y
(PID.TID 0000.0001) > &EEPARMS
(PID.TID 0000.0001) > /
(PID.TID 0000.0001) ># Note: Some systems use & as the
(PID.TID 0000.0001) ># namelist terminator. Other systems
(PID.TID 0000.0001) ># use a & character (as shown here).
(PID.TID 0000.0001) 
(PID.TID 0000.0001) // =======================================================
(PID.TID 0000.0001) // Computational Grid Specification ( see files "SIZE.h" )
(PID.TID 0000.0001) //                                  ( and "eedata"       )
(PID.TID 0000.0001) // =======================================================
(PID.TID 0000.0001)      nPx =    1 ; /* No. processes in X */
(PID.TID 0000.0001)      nPy =    1 ; /* No. processes in Y */
(PID.TID 0000.0001)      nSx =    2 ; /* No. tiles in X per process */
(PID.TID 0000.0001)      nSy =    2 ; /* No. tiles in Y per process */
(PID.TID 0000.0001)      sNx =   25 ; /* Tile size in X */
(PID.TID 0000.0001)      sNy =   13 ; /* Tile size in Y */
(PID.TID 0000.0001)      OLx =    3 ; /* Tile overlap distance in X */
(PID.TID 0000.0001)      OLy =    3 ; /* Tile overlap distance in Y */
(PID.TID 0000.0001)      nTx =    1 ; /* No. threads in X per process */
(PID.TID 0000.0001)      nTy =    1 ; /* No. threads in Y per process */
(PID.TID 0000.0001)       Nr =   40 ; /* No. levels in the vertical   */
(PID.TID 0000.0001)       Nx =   50 ; /* Total domain size in X ( = nPx*nSx*sNx ) */
(PID.TID 0000.0001)       Ny =   26 ; /* Total domain size in Y ( = nPy*nSy*sNy ) */
(PID.TID 0000.0001)   nTiles =    4 ; /* Total no. tiles per process ( = nSx*nSy ) */
(PID.TID 0000.0001)   nProcs =    1 ; /* Total no. processes ( = nPx*nPy ) */
(PID.TID 0000.0001) nThreads =    1 ; /* Total no. threads per process ( = nTx*nTy ) */
(PID.TID 0000.0001) usingMPI =    F ; /* Flag used to control whether MPI is in use */
(PID.TID 0000.0001)                   /*  note: To execute a program with MPI calls */
(PID.TID 0000.0001)                   /*  it must be launched appropriately e.g     */
(PID.TID 0000.0001)                   /*  "mpirun -np 64 ......"                    */
(PID.TID 0000.0001) useCoupler=    F ;/* Flag used to control communications with   */
(PID.TID 0000.0001)                   /*  other model components, through a coupler */
(PID.TID 0000.0001) debugMode =    F ; /* print debug msg. (sequence of S/R calls)  */
(PID.TID 0000.0001) printMapIncludesZeros=    F ; /* print zeros in Std.Output maps */
(PID.TID 0000.0001) maxLengthPrt1D=   65 /* maxLength of 1D array printed to StdOut */
(PID.TID 0000.0001) 
(PID.TID 0000.0001) // ======================================================
(PID.TID 0000.0001) // Mapping of tiles to threads
(PID.TID 0000.0001) // ======================================================
(PID.TID 0000.0001) // -o- Thread   1, tiles (   1:   2,   1:   2)
(PID.TID 0000.0001) 
(PID.TID 0000.0001) W2_READPARMS: file data.exch2 not found
(PID.TID 0000.0001) => use W2_EXCH2 default: Single sub-domain (nFacets=1)
(PID.TID 0000.0001) W2_useE2ioLayOut=    T ;/* T: use Exch2 glob IO map; F: use model default */
(PID.TID 0000.0001) W2_mapIO        =  -1 ; /* select option for Exch2 global-IO map */
(PID.TID 0000.0001) W2_printMsg     =  -1 ; /* select option for printing information */
(PID.TID 0000.0001) ===== Start setting W2 TOPOLOGY:
(PID.TID 0000.0001)  write to log-file: w2_tile_topology.0000.log
(PID.TID 0000.0001) =====       setting W2 TOPOLOGY: Done
(PID.TID 0000.0001) 
(PID.TID 0000.0001)  INI_PARMS: opening model parameter file "data"
(PID.TID 0000.0001)  OPEN_COPY_DATA_FILE: opening file data
(PID.TID 0000.0001) // =======================================================
(PID.TID 0000.0001) // Parameter file "data"
(PID.TID 0000.0001) // =======================================================
(PID.TID 0000.0001) ># ====================
(PID.TID 0000.0001) ># | Model parameters |
(PID.TID 0000.0001) ># ====================
(PID.TID 0000.0001) >#
(PID.TID 0000.0001) ># Continuous equation parameters
(PID.TID 0000.0001) > &PARM01
(PID.TID 0000.0001) > viscAr=5.E-5,
(PID.TID 0000.0001) >#- This is the background viscosity used; total=viscah+viscleith
(PID.TID 0000.0001) ># viscAh=1.E2,
(PID.TID 0000.0001) ># viscA4=1.E2,
(PID.TID 0000.0001) >#- This is the background viscosity used on vorticity points
(PID.TID 0000.0001) ># viscAhZ=1.E2,
(PID.TID 0000.0001) ># viscA4Z=1.E2,
(PID.TID 0000.0001) >#- This is the background viscosity used on divergence points
(PID.TID 0000.0001) ># viscAhD=1.E2,
(PID.TID 0000.0001) ># viscA4D=1.E2,
(PID.TID 0000.0001) >#- viscAhD and viscAhZ are set to viscah if they are unset initially
(PID.TID 0000.0001) >#
(PID.TID 0000.0001) >#- This is a maximum gridscale Reynolds number limiter
(PID.TID 0000.0001) ># viscAhReMax=10.,
(PID.TID 0000.0001) ># viscA4ReMax=10.,
(PID.TID 0000.0001) >#- This is a minimum autoscaling viscosity
(PID.TID 0000.0001) ># viscAhGridMin=.01,
(PID.TID 0000.0001) ># viscA4GridMin=.01,
(PID.TID 0000.0001) >#- This is the standard Leith Viscosity, prop to grad(curl v_h)
(PID.TID 0000.0001) >#viscC2leith = 1.85,
(PID.TID 0000.0001) > viscC4leith = 1.85,
(PID.TID 0000.0001) ># -This is an additional Leith Viscosity, prop to grad(div.v_h)
(PID.TID 0000.0001) >#  It traps instabilities that have no signal in grad(curl v_h)
(PID.TID 0000.0001) >#viscC2leithD = 1.85,
(PID.TID 0000.0001) > viscC4leithD = 1.85,
(PID.TID 0000.0001) ># This is harmonic Smagorinsky Coefficient
(PID.TID 0000.0001) ># 0.2-0.9 = value from 3-d turbulence theory; Smagorinsky (1993)
(PID.TID 0000.0001) ># 2.2-4   = stable oceanic values (Griffies and Hallberg, 2000)
(PID.TID 0000.0001) ># 1. smag is approximately the same as 1.85 leith+leithd for this grid spacing
(PID.TID 0000.0001) >#viscC2smag = 1.,
(PID.TID 0000.0001) > viscC4smag = 1.,
(PID.TID 0000.0001) >#- This is the max Viscosity used, be it Smag or Leith, and it scales
(PID.TID 0000.0001) >#  with grid size and timestep
(PID.TID 0000.0001) >#viscAhGridMax = 1.,
(PID.TID 0000.0001) > viscA4GridMax = 1.,
(PID.TID 0000.0001) >#- This uses the full grad(vort) and grad(div)
(PID.TID 0000.0001) > useFullLeith=.TRUE.,
(PID.TID 0000.0001) >#- This uses the Strain-Tension form for calculating viscous terms
(PID.TID 0000.0001) >#useStrainTensionVisc=.TRUE.,
(PID.TID 0000.0001) >#no_slip_sides=.FALSE.,
(PID.TID 0000.0001) > no_slip_bottom=.FALSE.,
(PID.TID 0000.0001) >#vectorInvariantMomentum=.TRUE.,
(PID.TID 0000.0001) > ivdc_kappa=10.,
(PID.TID 0000.0001) > implicitDiffusion=.TRUE.,
(PID.TID 0000.0001) > implicitViscosity=.TRUE.,
(PID.TID 0000.0001) > f0=7.29E-5,
(PID.TID 0000.0001) > beta=0.E-11,
(PID.TID 0000.0001) > useJamartWetPoints=.TRUE.,
(PID.TID 0000.0001) > eosType='LINEAR',
(PID.TID 0000.0001) ># Using Temperature as only Active Tracer
(PID.TID 0000.0001) > tAlpha=2.E-4,
(PID.TID 0000.0001) ># Using Salinity as Spice
(PID.TID 0000.0001) > sBeta =0.E-4,
(PID.TID 0000.0001) > gravity=9.81,
(PID.TID 0000.0001) > rhoNil=1035.,
(PID.TID 0000.0001) > implicitFreeSurface=.TRUE.,
(PID.TID 0000.0001) > staggerTimeStep=.TRUE.,
(PID.TID 0000.0001) > tempAdvScheme=33,
(PID.TID 0000.0001) > saltAdvScheme=33,
(PID.TID 0000.0001) > readBinaryPrec=64,
(PID.TID 0000.0001) > writeBinaryPrec=64,
(PID.TID 0000.0001) > /
(PID.TID 0000.0001) >
(PID.TID 0000.0001) ># Elliptic solver parameters
(PID.TID 0000.0001) > &PARM02
(PID.TID 0000.0001) > cg2dMaxIters=1000,
(PID.TID 0000.0001) > cg2dTargetResidual=1.E-11,
(PID.TID 0000.0001) > cg3dMaxIters=40,
(PID.TID 0000.0001) > cg3dTargetResidual=1.E-9,
(PID.TID 0000.0001) > /
(PID.TID 0000.0001) >
(PID.TID 0000.0001) ># Time stepping parameters
(PID.TID 0000.0001) > &PARM03
(PID.TID 0000.0001) > nIter0=36,
(PID.TID 0000.0001) >#endTime=86400.,
(PID.TID 0000.0001) >#- for testing, only run for 12 iterations:
(PID.TID 0000.0001) > nTimeSteps=12,
(PID.TID 0000.0001) > deltaT=1200.,
(PID.TID 0000.0001) > abEps=0.01,
(PID.TID 0000.0001) >#- for testing, reduce amount of output by commenting out output frequencies:
(PID.TID 0000.0001) ># pchkptFreq=43200.,
(PID.TID 0000.0001) >#taveFreq=7200.,
(PID.TID 0000.0001) >#dumpFreq=7200.,
(PID.TID 0000.0001) >#diagFreq=7200.,
(PID.TID 0000.0001) > monitorSelect=2,
(PID.TID 0000.0001) > monitorFreq=1200.,
(PID.TID 0000.0001) > /
(PID.TID 0000.0001) >
(PID.TID 0000.0001) ># Gridding parameters
(PID.TID 0000.0001) > &PARM04
(PID.TID 0000.0001) > usingCartesianGrid=.TRUE.,
(PID.TID 0000.0001) > delR= 40*5.0,
(PID.TID 0000.0001) > dxSpacing=1.E3,
(PID.TID 0000.0001) > dySpacing=1.E3,
(PID.TID 0000.0001) > /
(PID.TID 0000.0001) >
(PID.TID 0000.0001) ># Input datasets
(PID.TID 0000.0001) > &PARM05
(PID.TID 0000.0001) > bathyFile='topo_sl.bin',
(PID.TID 0000.0001) > hydrogThetaFile='thetaInitial.bin',
(PID.TID 0000.0001) > hydrogSaltFile='spiceInitial.bin',
(PID.TID 0000.0001) > /
(PID.TID 0000.0001) 
(PID.TID 0000.0001)  INI_PARMS ; starts to read PARM01
(PID.TID 0000.0001)  INI_PARMS ; read PARM01 : OK
(PID.TID 0000.0001)  INI_PARMS ; starts to read PARM02
(PID.TID 0000.0001)  INI_PARMS ; read PARM02 : OK
(PID.TID 0000.0001)  INI_PARMS ; starts to read PARM03
(PID.TID 0000.0001)  INI_PARMS ; read PARM03 : OK
(PID.TID 0000.0001)  INI_PARMS ; starts to read PARM04
(PID.TID 0000.0001)  INI_PARMS ; read PARM04 : OK
(PID.TID 0000.0001)  INI_PARMS ; starts to read PARM05
(PID.TID 0000.0001)  INI_PARMS ; read PARM05 : OK
(PID.TID 0000.0001)  INI_PARMS: finished reading file "data"
(PID.TID 0000.0001)  PACKAGES_BOOT: opening data.pkg
(PID.TID 0000.0001)  OPEN_COPY_DATA_FILE: opening file data.pkg
(PID.TID 0000.0001) // =======================================================
(PID.TID 0000.0001) // Parameter file "data.pkg"
(PID.TID 0000.0001) // =======================================================
(PID.TID 0000.0001) ># Packages
(PID.TID 0000.0001) > &PACKAGES
(PID.TID 0000.0001) >  useKPP     = .FALSE.,
(PID.TID 0000.0001) >  useMNC     = .TRUE.,
(PID.TID 0000.0001) >  useDiagnostics=.TRUE.,
(PID.TID 0000.0001) > /
(PID.TID 0000.0001) 
(PID.TID 0000.0001)  PACKAGES_BOOT: finished reading data.pkg
(PID.TID 0000.0001)  PACKAGES_BOOT: On/Off package Summary
 --------  pkgs with a standard "usePKG" On/Off switch in "data.pkg":  --------
 pkg/flt                  compiled but not used ( useFLT                   = F )
 pkg/diagnostics          compiled   and   used ( useDiagnostics           = T )
 pkg/mnc                  compiled   and   used ( useMNC                   = T )
 -------- pkgs without standard "usePKG" On/Off switch in "data.pkg":  --------
 pkg/generic_advdiff      compiled   and   used ( useGAD                   = T )
 pkg/mom_common           compiled   and   used ( momStepping              = T )
 pkg/mom_vecinv           compiled but not used ( +vectorInvariantMomentum = F )
 pkg/mom_fluxform         compiled   and   used ( & not vectorInvariantMom = T )
 pkg/monitor              compiled   and   used ( monitorFreq > 0.         = T )
 pkg/timeave              compiled but not used ( taveFreq > 0.            = F )
 pkg/debug                compiled but not used ( debugMode                = F )
 pkg/exch2                compiled   and   used
 pkg/rw                   compiled   and   used
 pkg/mdsio                compiled   and   used
(PID.TID 0000.0001)  PACKAGES_BOOT: End of package Summary
(PID.TID 0000.0001) 
(PID.TID 0000.0001)  MNC_READPARMS: opening file 'data.mnc'
(PID.TID 0000.0001)  OPEN_COPY_DATA_FILE: opening file data.mnc
(PID.TID 0000.0001) // =======================================================
(PID.TID 0000.0001) // Parameter file "data.mnc"
(PID.TID 0000.0001) // =======================================================
(PID.TID 0000.0001) ># Example "data.mnc" file
(PID.TID 0000.0001) ># Lines beginning "#" are comments
(PID.TID 0000.0001) > &MNC_01
(PID.TID 0000.0001) ># mnc_echo_gvtypes=.FALSE.,
(PID.TID 0000.0001) ># mnc_use_indir=.FALSE.,
(PID.TID 0000.0001) > mnc_use_outdir=.TRUE.,
(PID.TID 0000.0001) > mnc_outdir_str='mnc_test_',
(PID.TID 0000.0001) ># mnc_outdir_date=.TRUE.,
(PID.TID 0000.0001) > monitor_mnc=.FALSE.,
(PID.TID 0000.0001) >#snapshot_mnc=.FALSE.,
(PID.TID 0000.0001) >#timeave_mnc=.FALSE.,
(PID.TID 0000.0001) > pickup_read_mnc=.FALSE.,
(PID.TID 0000.0001) > pickup_write_mnc=.FALSE.,
(PID.TID 0000.0001) > /
(PID.TID 0000.0001) ># Note: Some systems use & as the
(PID.TID 0000.0001) ># namelist terminator. Other systems
(PID.TID 0000.0001) ># use a & character (as shown here).
(PID.TID 0000.0001) 
(PID.TID 0000.0001)  MNC_READPARMS: finished reading data.mnc
(PID.TID 0000.0001)  DIAGNOSTICS_READPARMS: opening data.diagnostics
(PID.TID 0000.0001)  OPEN_COPY_DATA_FILE: opening file data.diagnostics
(PID.TID 0000.0001) // =======================================================
(PID.TID 0000.0001) // Parameter file "data.diagnostics"
(PID.TID 0000.0001) // =======================================================
(PID.TID 0000.0001) ># Diagnostic Package Choices
(PID.TID 0000.0001) >#--------------------
(PID.TID 0000.0001) >#  dumpAtLast (logical): always write output at the end of simulation (default=F)
(PID.TID 0000.0001) >#  diag_mnc   (logical): write to NetCDF files (default=useMNC)
(PID.TID 0000.0001) >#--for each output-stream:
(PID.TID 0000.0001) >#  fileName(n) : prefix of the output file name (max 80c long) for outp.stream n
(PID.TID 0000.0001) >#  frequency(n):< 0 : write snap-shot output every |frequency| seconds
(PID.TID 0000.0001) >#               > 0 : write time-average output every frequency seconds
(PID.TID 0000.0001) >#  timePhase(n)     : write at time = timePhase + multiple of |frequency|
(PID.TID 0000.0001) >#    averagingFreq  : frequency (in s) for periodic averaging interval
(PID.TID 0000.0001) >#    averagingPhase : phase     (in s) for periodic averaging interval
(PID.TID 0000.0001) >#    repeatCycle    : number of averaging intervals in 1 cycle
(PID.TID 0000.0001) >#  levels(:,n) : list of levels to write to file (Notes: declared as REAL)
(PID.TID 0000.0001) >#                when this entry is missing, select all common levels of this list
(PID.TID 0000.0001) >#  fields(:,n) : list of selected diagnostics fields (8.c) in outp.stream n
(PID.TID 0000.0001) >#                (see "available_diagnostics.log" file for the full list of diags)
(PID.TID 0000.0001) >#  missing_value(n) : missing value for real-type fields in output file "n"
(PID.TID 0000.0001) >#  fileFlags(n)     : specific code (8c string) for output file "n"
(PID.TID 0000.0001) >#--------------------
(PID.TID 0000.0001) > &DIAGNOSTICS_LIST
(PID.TID 0000.0001) >  dumpAtLast=.TRUE.,
(PID.TID 0000.0001) ># diag_mnc=.FALSE.,
(PID.TID 0000.0001) >#--
(PID.TID 0000.0001) >  fields(1:5,1)  = 'momKE   ','momHDiv ','momVort3',
(PID.TID 0000.0001) >                   'Strain  ','Tension ',
(PID.TID 0000.0001) >   fileName(1) = 'momDiag',
(PID.TID 0000.0001) >  frequency(1) = 864000.,
(PID.TID 0000.0001) >  fields(1:24,2) = 'VISCAHD ','VISCA4D ','VISCAHZ ','VISCA4Z ',
(PID.TID 0000.0001) >                   'VAHDMAX ','VA4DMAX ','VAHZMAX ','VA4ZMAX ',
(PID.TID 0000.0001) >                   'VAHDMIN ','VA4DMIN ','VAHZMIN ','VA4ZMIN ',
(PID.TID 0000.0001) >                   'VAHDLTH ','VA4DLTH ','VAHZLTH ','VA4ZLTH ',
(PID.TID 0000.0001) >                   'VAHDLTHD','VA4DLTHD','VAHZLTHD','VA4ZLTHD',
(PID.TID 0000.0001) >                   'VAHDSMAG','VA4DSMAG','VAHZSMAG','VA4ZSMAG',
(PID.TID 0000.0001) >   fileName(2) = 'viscDiag',
(PID.TID 0000.0001) >  frequency(2) = 864000.,
(PID.TID 0000.0001) > /
(PID.TID 0000.0001) >
(PID.TID 0000.0001) >#--------------------
(PID.TID 0000.0001) ># Parameter for Diagnostics of per level statistics:
(PID.TID 0000.0001) >#--------------------
(PID.TID 0000.0001) >#  diagSt_mnc (logical): write stat-diags to NetCDF files (default=diag_mnc)
(PID.TID 0000.0001) >#  diagSt_regMaskFile : file containing the region-mask to read-in
(PID.TID 0000.0001) >#  nSetRegMskFile   : number of region-mask sets within the region-mask file
(PID.TID 0000.0001) >#  set_regMask(i)   : region-mask set-index that identifies the region "i"
(PID.TID 0000.0001) >#  val_regMask(i)   : region "i" identifier value in the region mask
(PID.TID 0000.0001) >#--for each output-stream:
(PID.TID 0000.0001) >#  stat_fName(n) : prefix of the output file name (max 80c long) for outp.stream n
(PID.TID 0000.0001) >#  stat_freq(n):< 0 : write snap-shot output every |stat_freq| seconds
(PID.TID 0000.0001) >#               > 0 : write time-average output every stat_freq seconds
(PID.TID 0000.0001) >#  stat_phase(n)    : write at time = stat_phase + multiple of |stat_freq|
(PID.TID 0000.0001) >#  stat_region(:,n) : list of "regions" (default: 1 region only=global)
(PID.TID 0000.0001) >#  stat_fields(:,n) : list of selected diagnostics fields (8.c) in outp.stream n
(PID.TID 0000.0001) >#                (see "available_diagnostics.log" file for the full list of diags)
(PID.TID 0000.0001) >#--------------------
(PID.TID 0000.0001) > &DIAG_STATIS_PARMS
(PID.TID 0000.0001) >#- an example just to check the agreement with MONITOR output:
(PID.TID 0000.0001) >#stat_fields(1:5,1)  = 'ETAN    ','UVEL    ','VVEL    ','WVEL    ', 'THETA   ',
(PID.TID 0000.0001) ># stat_fName(1) = 'dynStDiag',
(PID.TID 0000.0001) >#  stat_freq(1) = -864000.,
(PID.TID 0000.0001) ># stat_phase(1) = 0.,
(PID.TID 0000.0001) > /
(PID.TID 0000.0001) >
(PID.TID 0000.0001) 
(PID.TID 0000.0001) S/R DIAGNOSTICS_READPARMS, read namelist "diagnostics_list": start
(PID.TID 0000.0001) S/R DIAGNOSTICS_READPARMS, read namelist "diagnostics_list": OK
(PID.TID 0000.0001) S/R DIAGNOSTICS_READPARMS, read namelist "DIAG_STATIS_PARMS": start
(PID.TID 0000.0001) S/R DIAGNOSTICS_READPARMS, read namelist "DIAG_STATIS_PARMS": OK
(PID.TID 0000.0001)  DIAGNOSTICS_READPARMS: global parameter summary:
(PID.TID 0000.0001)  dumpAtLast = /* always write time-ave diags at the end */
(PID.TID 0000.0001)                   T
(PID.TID 0000.0001)     ;
(PID.TID 0000.0001)  diag_mnc =   /* write NetCDF output files */
(PID.TID 0000.0001)                   T
(PID.TID 0000.0001)     ;
(PID.TID 0000.0001)  useMissingValue = /* put MissingValue where mask = 0 */
(PID.TID 0000.0001)                   F
(PID.TID 0000.0001)     ;
(PID.TID 0000.0001)  diagCG_maxIters = /* max number of iters in diag_cg2d */
(PID.TID 0000.0001)                    1000
(PID.TID 0000.0001)     ;
(PID.TID 0000.0001)  diagCG_resTarget = /* residual target for diag_cg2d */
(PID.TID 0000.0001)                 9.999999999999999E-12
(PID.TID 0000.0001)     ;
(PID.TID 0000.0001) -----------------------------------------------------
(PID.TID 0000.0001)  DIAGNOSTICS_READPARMS: active diagnostics summary:
(PID.TID 0000.0001) -----------------------------------------------------
(PID.TID 0000.0001) Creating Output Stream: momDiag
(PID.TID 0000.0001) Output Frequency:     864000.000000 ; Phase:           0.000000
(PID.TID 0000.0001)  Averaging Freq.:     864000.000000 , Phase:           0.000000 , Cycle:   1
(PID.TID 0000.0001)  missing value: -9.990000000000E+02
(PID.TID 0000.0001)  Levels:    will be set later
(PID.TID 0000.0001)  Fields:    momKE    momHDiv  momVort3 Strain   Tension
(PID.TID 0000.0001) Creating Output Stream: viscDiag
(PID.TID 0000.0001) Output Frequency:     864000.000000 ; Phase:           0.000000
(PID.TID 0000.0001)  Averaging Freq.:     864000.000000 , Phase:           0.000000 , Cycle:   1
(PID.TID 0000.0001)  missing value: -9.990000000000E+02
(PID.TID 0000.0001)  Levels:    will be set later
(PID.TID 0000.0001)  Fields:    VISCAHD  VISCA4D  VISCAHZ  VISCA4Z  VAHDMAX  VA4DMAX  VAHZMAX  VA4ZMAX  VAHDMIN  VA4DMIN
(PID.TID 0000.0001)  Fields:    VAHZMIN  VA4ZMIN  VAHDLTH  VA4DLTH  VAHZLTH  VA4ZLTH  VAHDLTHD VA4DLTHD VAHZLTHD VA4ZLTHD
(PID.TID 0000.0001)  Fields:    VAHDSMAG VA4DSMAG VAHZSMAG VA4ZSMAG
(PID.TID 0000.0001) -----------------------------------------------------
(PID.TID 0000.0001)  DIAGNOSTICS_READPARMS: statistics diags. summary:
(PID.TID 0000.0001) -----------------------------------------------------
(PID.TID 0000.0001) 
(PID.TID 0000.0001) SET_PARMS: done
(PID.TID 0000.0001) Enter INI_VERTICAL_GRID: setInterFDr=    T ; setCenterDr=    F
(PID.TID 0000.0001) %MON XC_max                       =   4.9500000000000E+04
(PID.TID 0000.0001) %MON XC_min                       =   5.0000000000000E+02
(PID.TID 0000.0001) %MON XC_mean                      =   2.5000000000000E+04
(PID.TID 0000.0001) %MON XC_sd                        =   1.4430869689662E+04
(PID.TID 0000.0001) %MON XG_max                       =   4.9000000000000E+04
(PID.TID 0000.0001) %MON XG_min                       =   0.0000000000000E+00
(PID.TID 0000.0001) %MON XG_mean                      =   2.4500000000000E+04
(PID.TID 0000.0001) %MON XG_sd                        =   1.4430869689662E+04
(PID.TID 0000.0001) %MON DXC_max                      =   1.0000000000000E+03
(PID.TID 0000.0001) %MON DXC_min                      =   1.0000000000000E+03
(PID.TID 0000.0001) %MON DXC_mean                     =   1.0000000000000E+03
(PID.TID 0000.0001) %MON DXC_sd                       =   0.0000000000000E+00
(PID.TID 0000.0001) %MON DXF_max                      =   1.0000000000000E+03
(PID.TID 0000.0001) %MON DXF_min                      =   1.0000000000000E+03
(PID.TID 0000.0001) %MON DXF_mean                     =   1.0000000000000E+03
(PID.TID 0000.0001) %MON DXF_sd                       =   0.0000000000000E+00
(PID.TID 0000.0001) %MON DXG_max                      =   1.0000000000000E+03
(PID.TID 0000.0001) %MON DXG_min                      =   1.0000000000000E+03
(PID.TID 0000.0001) %MON DXG_mean                     =   1.0000000000000E+03
(PID.TID 0000.0001) %MON DXG_sd                       =   0.0000000000000E+00
(PID.TID 0000.0001) %MON DXV_max                      =   1.0000000000000E+03
(PID.TID 0000.0001) %MON DXV_min                      =   1.0000000000000E+03
(PID.TID 0000.0001) %MON DXV_mean                     =   1.0000000000000E+03
(PID.TID 0000.0001) %MON DXV_sd                       =   0.0000000000000E+00
(PID.TID 0000.0001) %MON YC_max                       =   2.5500000000000E+04
(PID.TID 0000.0001) %MON YC_min                       =   5.0000000000000E+02
(PID.TID 0000.0001) %MON YC_mean                      =   1.3000000000000E+04
(PID.TID 0000.0001) %MON YC_sd                        =   7.5000000000000E+03
(PID.TID 0000.0001) %MON YG_max                       =   2.5000000000000E+04
(PID.TID 0000.0001) %MON YG_min                       =   0.0000000000000E+00
(PID.TID 0000.0001) %MON YG_mean                      =   1.2500000000000E+04
(PID.TID 0000.0001) %MON YG_sd                        =   7.5000000000000E+03
(PID.TID 0000.0001) %MON DYC_max                      =   1.0000000000000E+03
(PID.TID 0000.0001) %MON DYC_min                      =   1.0000000000000E+03
(PID.TID 0000.0001) %MON DYC_mean                     =   1.0000000000000E+03
(PID.TID 0000.0001) %MON DYC_sd                       =   0.0000000000000E+00
(PID.TID 0000.0001) %MON DYF_max                      =   1.0000000000000E+03
(PID.TID 0000.0001) %MON DYF_min                      =   1.0000000000000E+03
(PID.TID 0000.0001) %MON DYF_mean                     =   1.0000000000000E+03
(PID.TID 0000.0001) %MON DYF_sd                       =   0.0000000000000E+00
(PID.TID 0000.0001) %MON DYG_max                      =   1.0000000000000E+03
(PID.TID 0000.0001) %MON DYG_min                      =   1.0000000000000E+03
(PID.TID 0000.0001) %MON DYG_mean                     =   1.0000000000000E+03
(PID.TID 0000.0001) %MON DYG_sd                       =   0.0000000000000E+00
(PID.TID 0000.0001) %MON DYU_max                      =   1.0000000000000E+03
(PID.TID 0000.0001) %MON DYU_min                      =   1.0000000000000E+03
(PID.TID 0000.0001) %MON DYU_mean                     =   1.0000000000000E+03
(PID.TID 0000.0001) %MON DYU_sd                       =   0.0000000000000E+00
(PID.TID 0000.0001) %MON RA_max                       =   1.0000000000000E+06
(PID.TID 0000.0001) %MON RA_min                       =   1.0000000000000E+06
(PID.TID 0000.0001) %MON RA_mean                      =   1.0000000000000E+06
(PID.TID 0000.0001) %MON RA_sd                        =   0.0000000000000E+00
(PID.TID 0000.0001) %MON RAW_max                      =   1.0000000000000E+06
(PID.TID 0000.0001) %MON RAW_min                      =   1.0000000000000E+06
(PID.TID 0000.0001) %MON RAW_mean                     =   1.0000000000000E+06
(PID.TID 0000.0001) %MON RAW_sd                       =   0.0000000000000E+00
(PID.TID 0000.0001) %MON RAS_max                      =   1.0000000000000E+06
(PID.TID 0000.0001) %MON RAS_min                      =   1.0000000000000E+06
(PID.TID 0000.0001) %MON RAS_mean                     =   1.0000000000000E+06
(PID.TID 0000.0001) %MON RAS_sd                       =   0.0000000000000E+00
(PID.TID 0000.0001) %MON RAZ_max                      =   1.0000000000000E+06
(PID.TID 0000.0001) %MON RAZ_min                      =   1.0000000000000E+06
(PID.TID 0000.0001) %MON RAZ_mean                     =   1.0000000000000E+06
(PID.TID 0000.0001) %MON RAZ_sd                       =   0.0000000000000E+00
(PID.TID 0000.0001) %MON AngleCS_max                  =   1.0000000000000E+00
(PID.TID 0000.0001) %MON AngleCS_min                  =   1.0000000000000E+00
(PID.TID 0000.0001) %MON AngleCS_mean                 =   1.0000000000000E+00
(PID.TID 0000.0001) %MON AngleCS_sd                   =   0.0000000000000E+00
(PID.TID 0000.0001) %MON AngleSN_max                  =   0.0000000000000E+00
(PID.TID 0000.0001) %MON AngleSN_min                  =   0.0000000000000E+00
(PID.TID 0000.0001) %MON AngleSN_mean                 =   0.0000000000000E+00
(PID.TID 0000.0001) %MON AngleSN_sd                   =   0.0000000000000E+00
(PID.TID 0000.0001)  MDS_READ_FIELD: opening global file: topo_sl.bin
(PID.TID 0000.0001) // =======================================================
(PID.TID 0000.0001) // Field Model R_low (ini_masks_etc)
(PID.TID 0000.0001) // CMIN =         -2.000000000000000E+02
(PID.TID 0000.0001) // CMAX =         -2.000000000000000E+02
(PID.TID 0000.0001) // CINT =          0.000000000000000E+00
(PID.TID 0000.0001) // SYMBOLS (CMIN->CMAX): -abcdefghijklmnopqrstuvwxyz+
(PID.TID 0000.0001) //                  0.0: .
(PID.TID 0000.0001) // RANGE I (Lo:Hi:Step):(    -2:    53:     1)
(PID.TID 0000.0001) // RANGE J (Lo:Hi:Step):(    29:    -2:    -1)
(PID.TID 0000.0001) // RANGE K (Lo:Hi:Step):(   1:   1:   1)
(PID.TID 0000.0001) // =======================================================
(PID.TID 0000.0001) // =======================================================
(PID.TID 0000.0001) // END OF FIELD                                          =
(PID.TID 0000.0001) // =======================================================
(PID.TID 0000.0001) 
(PID.TID 0000.0001) // =======================================================
(PID.TID 0000.0001) // Field Model Ro_surf (ini_masks_etc)
(PID.TID 0000.0001) // CMIN =          1.000000000000000E+32
(PID.TID 0000.0001) // CMAX =         -1.000000000000000E+32
(PID.TID 0000.0001) // CINT =          0.000000000000000E+00
(PID.TID 0000.0001) // SYMBOLS (CMIN->CMAX): -abcdefghijklmnopqrstuvwxyz+
(PID.TID 0000.0001) //                  0.0: .
(PID.TID 0000.0001) // RANGE I (Lo:Hi:Step):(    -2:    53:     1)
(PID.TID 0000.0001) // RANGE J (Lo:Hi:Step):(    29:    -2:    -1)
(PID.TID 0000.0001) // RANGE K (Lo:Hi:Step):(   1:   1:   1)
(PID.TID 0000.0001) // =======================================================
(PID.TID 0000.0001) // =======================================================
(PID.TID 0000.0001) // END OF FIELD                                          =
(PID.TID 0000.0001) // =======================================================
(PID.TID 0000.0001) 
(PID.TID 0000.0001) // =======================================================
(PID.TID 0000.0001) // Field hFacC at iteration          0
(PID.TID 0000.0001) // CMIN =          1.000000000000000E+00
(PID.TID 0000.0001) // CMAX =          1.000000000000000E+00
(PID.TID 0000.0001) // CINT =          0.000000000000000E+00
(PID.TID 0000.0001) // SYMBOLS (CMIN->CMAX): -abcdefghijklmnopqrstuvwxyz+
(PID.TID 0000.0001) //                  0.0: .
(PID.TID 0000.0001) // RANGE I (Lo:Hi:Step):(    -2:    53:     1)
(PID.TID 0000.0001) // RANGE J (Lo:Hi:Step):(    29:    -2:    -1)
(PID.TID 0000.0001) // RANGE K (Lo:Hi:Step):(   1:   1:   1)
(PID.TID 0000.0001) // =======================================================
(PID.TID 0000.0001) // =======================================================
(PID.TID 0000.0001) // END OF FIELD                                          =
(PID.TID 0000.0001) // =======================================================
(PID.TID 0000.0001) 
(PID.TID 0000.0001) // =======================================================
(PID.TID 0000.0001) // Field hFacW at iteration          0
(PID.TID 0000.0001) // CMIN =          1.000000000000000E+00
(PID.TID 0000.0001) // CMAX =          1.000000000000000E+00
(PID.TID 0000.0001) // CINT =          0.000000000000000E+00
(PID.TID 0000.0001) // SYMBOLS (CMIN->CMAX): -abcdefghijklmnopqrstuvwxyz+
(PID.TID 0000.0001) //                  0.0: .
(PID.TID 0000.0001) // RANGE I (Lo:Hi:Step):(    -2:    53:     1)
(PID.TID 0000.0001) // RANGE J (Lo:Hi:Step):(    29:    -2:    -1)
(PID.TID 0000.0001) // RANGE K (Lo:Hi:Step):(   1:   1:   1)
(PID.TID 0000.0001) // =======================================================
(PID.TID 0000.0001) // =======================================================
(PID.TID 0000.0001) // END OF FIELD                                          =
(PID.TID 0000.0001) // =======================================================
(PID.TID 0000.0001) 
(PID.TID 0000.0001) // =======================================================
(PID.TID 0000.0001) // Field hFacS at iteration          0
(PID.TID 0000.0001) // CMIN =          1.000000000000000E+00
(PID.TID 0000.0001) // CMAX =          1.000000000000000E+00
(PID.TID 0000.0001) // CINT =          0.000000000000000E+00
(PID.TID 0000.0001) // SYMBOLS (CMIN->CMAX): -abcdefghijklmnopqrstuvwxyz+
(PID.TID 0000.0001) //                  0.0: .
(PID.TID 0000.0001) // RANGE I (Lo:Hi:Step):(    -2:    53:     1)
(PID.TID 0000.0001) // RANGE J (Lo:Hi:Step):(    29:    -2:    -1)
(PID.TID 0000.0001) // RANGE K (Lo:Hi:Step):(   1:   1:   1)
(PID.TID 0000.0001) // =======================================================
(PID.TID 0000.0001) // =======================================================
(PID.TID 0000.0001) // END OF FIELD                                          =
(PID.TID 0000.0001) // =======================================================
(PID.TID 0000.0001) 
(PID.TID 0000.0001) GAD_INIT_FIXED: GAD_OlMinSize=  2  0  1
(PID.TID 0000.0001) 
(PID.TID 0000.0001) // ===================================
(PID.TID 0000.0001) // GAD parameters :
(PID.TID 0000.0001) // ===================================
(PID.TID 0000.0001) tempAdvScheme =   /* Temp. Horiz.Advection scheme selector */
(PID.TID 0000.0001)                      33
(PID.TID 0000.0001)     ;
(PID.TID 0000.0001) tempVertAdvScheme =   /* Temp. Vert. Advection scheme selector */
(PID.TID 0000.0001)                      33
(PID.TID 0000.0001)     ;
(PID.TID 0000.0001) tempMultiDimAdvec =   /* use Muti-Dim Advec method for Temp */
(PID.TID 0000.0001)                   T
(PID.TID 0000.0001)     ;
(PID.TID 0000.0001) tempSOM_Advection = /* use 2nd Order Moment Advection for Temp */
(PID.TID 0000.0001)                   F
(PID.TID 0000.0001)     ;
(PID.TID 0000.0001) AdamsBashforthGt = /* apply Adams-Bashforth extrapolation on Gt */
(PID.TID 0000.0001)                   F
(PID.TID 0000.0001)     ;
(PID.TID 0000.0001) AdamsBashforth_T = /* apply Adams-Bashforth extrapolation on Temp */
(PID.TID 0000.0001)                   F
(PID.TID 0000.0001)     ;
(PID.TID 0000.0001) saltAdvScheme =   /* Salt. Horiz.advection scheme selector */
(PID.TID 0000.0001)                      33
(PID.TID 0000.0001)     ;
(PID.TID 0000.0001) saltVertAdvScheme =   /* Salt. Vert. Advection scheme selector */
(PID.TID 0000.0001)                      33
(PID.TID 0000.0001)     ;
(PID.TID 0000.0001) saltMultiDimAdvec =   /* use Muti-Dim Advec method for Salt */
(PID.TID 0000.0001)                   T
(PID.TID 0000.0001)     ;
(PID.TID 0000.0001) saltSOM_Advection = /* use 2nd Order Moment Advection for Salt */
(PID.TID 0000.0001)                   F
(PID.TID 0000.0001)     ;
(PID.TID 0000.0001) AdamsBashforthGs = /* apply Adams-Bashforth extrapolation on Gs */
(PID.TID 0000.0001)                   F
(PID.TID 0000.0001)     ;
(PID.TID 0000.0001) AdamsBashforth_S = /* apply Adams-Bashforth extrapolation on Salt */
(PID.TID 0000.0001)                   F
(PID.TID 0000.0001)     ;
(PID.TID 0000.0001) // ===================================
(PID.TID 0000.0001) ------------------------------------------------------------
(PID.TID 0000.0001) DIAGNOSTICS_SET_LEVELS: done
(PID.TID 0000.0001)  Total Nb of available Diagnostics: ndiagt=   183
(PID.TID 0000.0001)  write list of available Diagnostics to file: available_diagnostics.log
(PID.TID 0000.0001) SETDIAG: Allocate 40 x  1 Levels for Diagnostic #   147 momKE
(PID.TID 0000.0001) SETDIAG: Allocate 40 x  1 Levels for Diagnostic #   148 momHDiv
(PID.TID 0000.0001) SETDIAG: Allocate 40 x  1 Levels for Diagnostic #   149 momVort3
(PID.TID 0000.0001) SETDIAG: Allocate 40 x  1 Levels for Diagnostic #   150 Strain
(PID.TID 0000.0001) SETDIAG: Allocate 40 x  1 Levels for Diagnostic #   151 Tension
(PID.TID 0000.0001) SETDIAG: Allocate 40 x  1 Levels for Diagnostic #   123 VISCAHD
(PID.TID 0000.0001) SETDIAG: Allocate 40 x  1 Levels for Diagnostic #   124 VISCA4D
(PID.TID 0000.0001) SETDIAG: Allocate 40 x  1 Levels for Diagnostic #   121 VISCAHZ
(PID.TID 0000.0001) SETDIAG: Allocate 40 x  1 Levels for Diagnostic #   122 VISCA4Z
(PID.TID 0000.0001) SETDIAG: Allocate 40 x  1 Levels for Diagnostic #   129 VAHDMAX
(PID.TID 0000.0001) SETDIAG: Allocate 40 x  1 Levels for Diagnostic #   130 VA4DMAX
(PID.TID 0000.0001) SETDIAG: Allocate 40 x  1 Levels for Diagnostic #   127 VAHZMAX
(PID.TID 0000.0001) SETDIAG: Allocate 40 x  1 Levels for Diagnostic #   128 VA4ZMAX
(PID.TID 0000.0001) SETDIAG: Allocate 40 x  1 Levels for Diagnostic #   133 VAHDMIN
(PID.TID 0000.0001) SETDIAG: Allocate 40 x  1 Levels for Diagnostic #   134 VA4DMIN
(PID.TID 0000.0001) SETDIAG: Allocate 40 x  1 Levels for Diagnostic #   131 VAHZMIN
(PID.TID 0000.0001) SETDIAG: Allocate 40 x  1 Levels for Diagnostic #   132 VA4ZMIN
(PID.TID 0000.0001) SETDIAG: Allocate 40 x  1 Levels for Diagnostic #   137 VAHDLTH
(PID.TID 0000.0001) SETDIAG: Allocate 40 x  1 Levels for Diagnostic #   138 VA4DLTH
(PID.TID 0000.0001) SETDIAG: Allocate 40 x  1 Levels for Diagnostic #   135 VAHZLTH
(PID.TID 0000.0001) SETDIAG: Allocate 40 x  1 Levels for Diagnostic #   136 VA4ZLTH
(PID.TID 0000.0001) SETDIAG: Allocate 40 x  1 Levels for Diagnostic #   141 VAHDLTHD
(PID.TID 0000.0001) SETDIAG: Allocate 40 x  1 Levels for Diagnostic #   142 VA4DLTHD
(PID.TID 0000.0001) SETDIAG: Allocate 40 x  1 Levels for Diagnostic #   139 VAHZLTHD
(PID.TID 0000.0001) SETDIAG: Allocate 40 x  1 Levels for Diagnostic #   140 VA4ZLTHD
(PID.TID 0000.0001) SETDIAG: Allocate 40 x  1 Levels for Diagnostic #   145 VAHDSMAG
(PID.TID 0000.0001) SETDIAG: Allocate 40 x  1 Levels for Diagnostic #   146 VA4DSMAG
(PID.TID 0000.0001) SETDIAG: Allocate 40 x  1 Levels for Diagnostic #   143 VAHZSMAG
(PID.TID 0000.0001) SETDIAG: Allocate 40 x  1 Levels for Diagnostic #   144 VA4ZSMAG
(PID.TID 0000.0001)   space allocated for all diagnostics:    1160 levels
(PID.TID 0000.0001) DIAGNOSTICS_SET_POINTERS: Set levels for Outp.Stream: momDiag
(PID.TID 0000.0001)  Levels:       1.   2.   3.   4.   5.   6.   7.   8.   9.  10.  11.  12.  13.  14.  15.  16.  17.  18.  19.  20.
(PID.TID 0000.0001)  Levels:      21.  22.  23.  24.  25.  26.  27.  28.  29.  30.  31.  32.  33.  34.  35.  36.  37.  38.  39.  40.
(PID.TID 0000.0001) DIAGNOSTICS_SET_POINTERS: Set levels for Outp.Stream: viscDiag
(PID.TID 0000.0001)  Levels:       1.   2.   3.   4.   5.   6.   7.   8.   9.  10.  11.  12.  13.  14.  15.  16.  17.  18.  19.  20.
(PID.TID 0000.0001)  Levels:      21.  22.  23.  24.  25.  26.  27.  28.  29.  30.  31.  32.  33.  34.  35.  36.  37.  38.  39.  40.
(PID.TID 0000.0001) DIAGNOSTICS_SET_POINTERS: done
(PID.TID 0000.0001) ------------------------------------------------------------
(PID.TID 0000.0001) DIAGSTATS_SET_REGIONS: define no region
(PID.TID 0000.0001) ------------------------------------------------------------
(PID.TID 0000.0001)   space allocated for all stats-diags:       0 levels
(PID.TID 0000.0001) DIAGSTATS_SET_POINTERS: done
(PID.TID 0000.0001) ------------------------------------------------------------
(PID.TID 0000.0001) %MON fCori_max                    =   7.2900000000000E-05
(PID.TID 0000.0001) %MON fCori_min                    =   7.2900000000000E-05
(PID.TID 0000.0001) %MON fCori_mean                   =   7.2900000000000E-05
(PID.TID 0000.0001) %MON fCori_sd                     =   4.7433845046241E-19
(PID.TID 0000.0001) %MON fCoriG_max                   =   7.2900000000000E-05
(PID.TID 0000.0001) %MON fCoriG_min                   =   7.2900000000000E-05
(PID.TID 0000.0001) %MON fCoriG_mean                  =   7.2900000000000E-05
(PID.TID 0000.0001) %MON fCoriG_sd                    =   4.7433845046241E-19
(PID.TID 0000.0001) %MON fCoriCos_max                 =   0.0000000000000E+00
(PID.TID 0000.0001) %MON fCoriCos_min                 =   0.0000000000000E+00
(PID.TID 0000.0001) %MON fCoriCos_mean                =   0.0000000000000E+00
(PID.TID 0000.0001) %MON fCoriCos_sd                  =   0.0000000000000E+00
(PID.TID 0000.0001) INI_CG2D: CG2D normalisation factor =  5.0000000000000001E-03
(PID.TID 0000.0001) 
(PID.TID 0000.0001) // =======================================================
(PID.TID 0000.0001) // Model configuration
(PID.TID 0000.0001) // =======================================================
(PID.TID 0000.0001) //
(PID.TID 0000.0001) // "Physical" paramters ( PARM01 in namelist )
(PID.TID 0000.0001) //
(PID.TID 0000.0001) buoyancyRelation = /* Type of relation to get Buoyancy */
(PID.TID 0000.0001)               'OCEANIC'
(PID.TID 0000.0001)     ;
(PID.TID 0000.0001) fluidIsAir   =  /* fluid major constituent is Air */
(PID.TID 0000.0001)                   F
(PID.TID 0000.0001)     ;
(PID.TID 0000.0001) fluidIsWater =  /* fluid major constituent is Water */
(PID.TID 0000.0001)                   T
(PID.TID 0000.0001)     ;
(PID.TID 0000.0001) usingPCoords =  /* use p (or p*) vertical coordinate */
(PID.TID 0000.0001)                   F
(PID.TID 0000.0001)     ;
(PID.TID 0000.0001) usingZCoords =  /* use z (or z*) vertical coordinate */
(PID.TID 0000.0001)                   T
(PID.TID 0000.0001)     ;
(PID.TID 0000.0001) tRef =   /* Reference temperature profile ( oC or K ) */
(PID.TID 0000.0001)    40 @  2.000000000000000E+01              /* K =  1: 40 */
(PID.TID 0000.0001)     ;
(PID.TID 0000.0001) sRef =   /* Reference salinity profile ( psu ) */
(PID.TID 0000.0001)    40 @  3.000000000000000E+01              /* K =  1: 40 */
(PID.TID 0000.0001)     ;
(PID.TID 0000.0001) useStrainTensionVisc= /* Use StrainTension Form of Viscous Operator */
(PID.TID 0000.0001)                   F
(PID.TID 0000.0001)     ;
(PID.TID 0000.0001) useVariableVisc = /* Use variable horizontal viscosity */
(PID.TID 0000.0001)                   T
(PID.TID 0000.0001)     ;
(PID.TID 0000.0001) useHarmonicVisc = /* Use harmonic horizontal viscosity */
(PID.TID 0000.0001)                   F
(PID.TID 0000.0001)     ;
(PID.TID 0000.0001) useBiharmonicVisc= /* Use biharmonic horiz.  viscosity */
(PID.TID 0000.0001)                   T
(PID.TID 0000.0001)     ;
(PID.TID 0000.0001) useSmag3D = /* Use isotropic 3-D Smagorinsky viscosity */
(PID.TID 0000.0001)                   F
(PID.TID 0000.0001)     ;
(PID.TID 0000.0001) viscAh  =   /* Lateral harmonic viscosity ( m^2/s ) */
(PID.TID 0000.0001)                 0.000000000000000E+00
(PID.TID 0000.0001)     ;
(PID.TID 0000.0001) viscAhMax = /* Maximum lateral harmonic viscosity ( m^2/s ) */
(PID.TID 0000.0001)                 1.000000000000000E+21
(PID.TID 0000.0001)     ;
(PID.TID 0000.0001) viscAhGrid = /* Grid dependent lateral harmonic viscosity ( non-dim. ) */
(PID.TID 0000.0001)                 0.000000000000000E+00
(PID.TID 0000.0001)     ;
(PID.TID 0000.0001) useFullLeith = /* Use Full Form of Leith Viscosity on/off flag*/
(PID.TID 0000.0001)                   T
(PID.TID 0000.0001)     ;
(PID.TID 0000.0001) useAreaViscLength = /* Use area for visc length instead of geom. mean*/
(PID.TID 0000.0001)                   F
(PID.TID 0000.0001)     ;
(PID.TID 0000.0001) viscC2leith = /* Leith harmonic visc. factor (on grad(vort),non-dim.) */
(PID.TID 0000.0001)                 0.000000000000000E+00
(PID.TID 0000.0001)     ;
(PID.TID 0000.0001) viscC2leithD = /* Leith harmonic viscosity factor (on grad(div),non-dim.)*/
(PID.TID 0000.0001)                 0.000000000000000E+00
(PID.TID 0000.0001)     ;
(PID.TID 0000.0001) viscC2smag = /* Smagorinsky harmonic viscosity factor (non-dim.) */
(PID.TID 0000.0001)                 0.000000000000000E+00
(PID.TID 0000.0001)     ;
(PID.TID 0000.0001) viscA4  =   /* Lateral biharmonic viscosity ( m^4/s ) */
(PID.TID 0000.0001)                 0.000000000000000E+00
(PID.TID 0000.0001)     ;
(PID.TID 0000.0001) viscA4Max = /* Maximum biharmonic viscosity ( m^2/s ) */
(PID.TID 0000.0001)                 1.000000000000000E+21
(PID.TID 0000.0001)     ;
(PID.TID 0000.0001) viscA4Grid = /* Grid dependent biharmonic viscosity ( non-dim. ) */
(PID.TID 0000.0001)                 0.000000000000000E+00
(PID.TID 0000.0001)     ;
(PID.TID 0000.0001) viscC4leith = /* Leith biharm viscosity factor (on grad(vort), non-dim.)*/
(PID.TID 0000.0001)                 1.850000000000000E+00
(PID.TID 0000.0001)     ;
(PID.TID 0000.0001) viscC4leithD = /* Leith biharm viscosity factor (on grad(div), non-dim.) */
(PID.TID 0000.0001)                 1.850000000000000E+00
(PID.TID 0000.0001)     ;
(PID.TID 0000.0001) viscC4Smag = /* Smagorinsky biharm viscosity factor (non-dim) */
(PID.TID 0000.0001)                 1.000000000000000E+00
(PID.TID 0000.0001)     ;
(PID.TID 0000.0001) no_slip_sides =  /* Viscous BCs: No-slip sides */
(PID.TID 0000.0001)                   T
(PID.TID 0000.0001)     ;
(PID.TID 0000.0001) sideDragFactor = /* side-drag scaling factor (non-dim) */
(PID.TID 0000.0001)                 2.000000000000000E+00
(PID.TID 0000.0001)     ;
(PID.TID 0000.0001) viscArNr = /* vertical profile of vertical viscosity ( m^2/s )*/
(PID.TID 0000.0001)    40 @  5.000000000000000E-05              /* K =  1: 40 */
(PID.TID 0000.0001)     ;
(PID.TID 0000.0001) no_slip_bottom =  /* Viscous BCs: No-slip bottom */
(PID.TID 0000.0001)                   F
(PID.TID 0000.0001)     ;
(PID.TID 0000.0001) bottomDragLinear = /* linear bottom-drag coefficient ( m/s ) */
(PID.TID 0000.0001)                 0.000000000000000E+00
(PID.TID 0000.0001)     ;
(PID.TID 0000.0001) bottomDragQuadratic = /* quadratic bottom-drag coefficient (-) */
(PID.TID 0000.0001)                 0.000000000000000E+00
(PID.TID 0000.0001)     ;
(PID.TID 0000.0001) diffKhT =   /* Laplacian diffusion of heat laterally ( m^2/s ) */
(PID.TID 0000.0001)                 0.000000000000000E+00
(PID.TID 0000.0001)     ;
(PID.TID 0000.0001) diffK4T =   /* Biharmonic diffusion of heat laterally ( m^4/s ) */
(PID.TID 0000.0001)                 0.000000000000000E+00
(PID.TID 0000.0001)     ;
(PID.TID 0000.0001) diffKhS =   /* Laplacian diffusion of salt laterally ( m^2/s ) */
(PID.TID 0000.0001)                 0.000000000000000E+00
(PID.TID 0000.0001)     ;
(PID.TID 0000.0001) diffK4S =   /* Biharmonic diffusion of salt laterally ( m^4/s ) */
(PID.TID 0000.0001)                 0.000000000000000E+00
(PID.TID 0000.0001)     ;
(PID.TID 0000.0001) diffKrNrT = /* vertical profile of vertical diffusion of Temp ( m^2/s )*/
(PID.TID 0000.0001)    40 @  0.000000000000000E+00              /* K =  1: 40 */
(PID.TID 0000.0001)     ;
(PID.TID 0000.0001) diffKrNrS = /* vertical profile of vertical diffusion of Salt ( m^2/s )*/
(PID.TID 0000.0001)    40 @  0.000000000000000E+00              /* K =  1: 40 */
(PID.TID 0000.0001)     ;
(PID.TID 0000.0001) diffKrBL79surf = /* Surface diffusion for Bryan and Lewis 79 ( m^2/s ) */
(PID.TID 0000.0001)                 0.000000000000000E+00
(PID.TID 0000.0001)     ;
(PID.TID 0000.0001) diffKrBL79deep = /* Deep diffusion for Bryan and Lewis 1979 ( m^2/s ) */
(PID.TID 0000.0001)                 0.000000000000000E+00
(PID.TID 0000.0001)     ;
(PID.TID 0000.0001) diffKrBL79scl = /* Depth scale for Bryan and Lewis 1979 ( m ) */
(PID.TID 0000.0001)                 2.000000000000000E+02
(PID.TID 0000.0001)     ;
(PID.TID 0000.0001) diffKrBL79Ho = /* Turning depth for Bryan and Lewis 1979 ( m ) */
(PID.TID 0000.0001)                -2.000000000000000E+03
(PID.TID 0000.0001)     ;
(PID.TID 0000.0001) ivdc_kappa = /* Implicit Vertical Diffusivity for Convection ( m^2/s) */
(PID.TID 0000.0001)                 1.000000000000000E+01
(PID.TID 0000.0001)     ;
(PID.TID 0000.0001) hMixCriteria=  /* Criteria for mixed-layer diagnostic */
(PID.TID 0000.0001)                -8.000000000000000E-01
(PID.TID 0000.0001)     ;
(PID.TID 0000.0001) dRhoSmall =  /* Parameter for mixed-layer diagnostic */
(PID.TID 0000.0001)                 1.000000000000000E-06
(PID.TID 0000.0001)     ;
(PID.TID 0000.0001) hMixSmooth=  /* Smoothing parameter for mixed-layer diagnostic */
(PID.TID 0000.0001)                 0.000000000000000E+00
(PID.TID 0000.0001)     ;
(PID.TID 0000.0001) eosType =  /* Type of Equation of State */
(PID.TID 0000.0001)               'LINEAR'
(PID.TID 0000.0001)     ;
(PID.TID 0000.0001) tAlpha = /* Linear EOS thermal expansion coefficient ( 1/oC ) */
(PID.TID 0000.0001)                 2.000000000000000E-04
(PID.TID 0000.0001)     ;
(PID.TID 0000.0001) sBeta  = /* Linear EOS haline contraction coefficient ( 1/psu ) */
(PID.TID 0000.0001)                 0.000000000000000E+00
(PID.TID 0000.0001)     ;
(PID.TID 0000.0001) rhoNil    = /* Reference density for Linear EOS ( kg/m^3 ) */
(PID.TID 0000.0001)                 1.035000000000000E+03
(PID.TID 0000.0001)     ;
(PID.TID 0000.0001) celsius2K = /* 0 degree Celsius converted to Kelvin ( K ) */
(PID.TID 0000.0001)                 2.731500000000000E+02
(PID.TID 0000.0001)     ;
(PID.TID 0000.0001) rhoConst  = /* Reference density (Boussinesq)  ( kg/m^3 ) */
(PID.TID 0000.0001)                 1.035000000000000E+03
(PID.TID 0000.0001)     ;
(PID.TID 0000.0001) rhoFacC = /* normalized Reference density @ cell-Center (-) */
(PID.TID 0000.0001)    40 @  1.000000000000000E+00              /* K =  1: 40 */
(PID.TID 0000.0001)     ;
(PID.TID 0000.0001) rhoFacF = /* normalized Reference density @ W-Interface (-) */
(PID.TID 0000.0001)    41 @  1.000000000000000E+00              /* K =  1: 41 */
(PID.TID 0000.0001)     ;
(PID.TID 0000.0001) rhoConstFresh = /* Fresh-water reference density ( kg/m^3 ) */
(PID.TID 0000.0001)                 1.035000000000000E+03
(PID.TID 0000.0001)     ;
(PID.TID 0000.0001) gravity =   /* Gravitational acceleration ( m/s^2 ) */
(PID.TID 0000.0001)                 9.810000000000000E+00
(PID.TID 0000.0001)     ;
(PID.TID 0000.0001) gBaro =   /* Barotropic gravity ( m/s^2 ) */
(PID.TID 0000.0001)                 9.810000000000000E+00
(PID.TID 0000.0001)     ;
(PID.TID 0000.0001) rotationPeriod =   /* Rotation Period ( s ) */
(PID.TID 0000.0001)                 8.616400000000000E+04
(PID.TID 0000.0001)     ;
(PID.TID 0000.0001) omega =   /* Angular velocity ( rad/s ) */
(PID.TID 0000.0001)                 7.292123516990375E-05
(PID.TID 0000.0001)     ;
(PID.TID 0000.0001) f0 =   /* Reference coriolis parameter ( 1/s ) */
(PID.TID 0000.0001)                 7.290000000000000E-05
(PID.TID 0000.0001)     ;
(PID.TID 0000.0001) beta =   /* Beta ( 1/(m.s) ) */
(PID.TID 0000.0001)                 0.000000000000000E+00
(PID.TID 0000.0001)     ;
(PID.TID 0000.0001) fPrime =   /* Second coriolis parameter ( 1/s ) */
(PID.TID 0000.0001)                 0.000000000000000E+00
(PID.TID 0000.0001)     ;
(PID.TID 0000.0001) rigidLid =   /* Rigid lid on/off flag */
(PID.TID 0000.0001)                   F
(PID.TID 0000.0001)     ;
(PID.TID 0000.0001) implicitFreeSurface =   /* Implicit free surface on/off flag */
(PID.TID 0000.0001)                   T
(PID.TID 0000.0001)     ;
(PID.TID 0000.0001) freeSurfFac =   /* Implicit free surface factor */
(PID.TID 0000.0001)                 1.000000000000000E+00
(PID.TID 0000.0001)     ;
(PID.TID 0000.0001) implicSurfPress =  /* Surface Pressure implicit factor (0-1)*/
(PID.TID 0000.0001)                 1.000000000000000E+00
(PID.TID 0000.0001)     ;
(PID.TID 0000.0001) implicDiv2Dflow =  /* Barot. Flow Div. implicit factor (0-1)*/
(PID.TID 0000.0001)                 1.000000000000000E+00
(PID.TID 0000.0001)     ;
(PID.TID 0000.0001) uniformLin_PhiSurf = /* use uniform Bo_surf on/off flag*/
(PID.TID 0000.0001)                   T
(PID.TID 0000.0001)     ;
(PID.TID 0000.0001) uniformFreeSurfLev = /* free-surface level-index is uniform */
(PID.TID 0000.0001)                   T
(PID.TID 0000.0001)     ;
(PID.TID 0000.0001) hFacMin =   /* minimum partial cell factor (hFac) */
(PID.TID 0000.0001)                 1.000000000000000E+00
(PID.TID 0000.0001)     ;
(PID.TID 0000.0001) hFacMinDr = /* minimum partial cell thickness ( m) */
(PID.TID 0000.0001)                 0.000000000000000E+00
(PID.TID 0000.0001)     ;
(PID.TID 0000.0001) exactConserv =  /* Exact Volume Conservation on/off flag*/
(PID.TID 0000.0001)                   F
(PID.TID 0000.0001)     ;
(PID.TID 0000.0001) linFSConserveTr = /* Tracer correction for Lin Free Surface on/off flag*/
(PID.TID 0000.0001)                   F
(PID.TID 0000.0001)     ;
(PID.TID 0000.0001) nonlinFreeSurf = /* Non-linear Free Surf. options (-1,0,1,2,3)*/
(PID.TID 0000.0001)                       0
(PID.TID 0000.0001)      -1,0= Off ; 1,2,3= On, 2=+rescale gU,gV, 3=+update cg2d solv.
(PID.TID 0000.0001)     ;
(PID.TID 0000.0001) hFacInf =   /* lower threshold for hFac (nonlinFreeSurf only)*/
(PID.TID 0000.0001)                 2.000000000000000E-01
(PID.TID 0000.0001)     ;
(PID.TID 0000.0001) hFacSup =   /* upper threshold for hFac (nonlinFreeSurf only)*/
(PID.TID 0000.0001)                 2.000000000000000E+00
(PID.TID 0000.0001)     ;
(PID.TID 0000.0001) select_rStar = /* r* Vertical coord. options (=0 r coord.; >0 uses r*)*/
(PID.TID 0000.0001)                       0
(PID.TID 0000.0001)     ;
(PID.TID 0000.0001) useRealFreshWaterFlux = /* Real Fresh Water Flux on/off flag*/
(PID.TID 0000.0001)                   F
(PID.TID 0000.0001)     ;
(PID.TID 0000.0001) temp_EvPrRn = /* Temp. of Evap/Prec/R (UNSET=use local T)(oC)*/
(PID.TID 0000.0001)                 1.234567000000000E+05
(PID.TID 0000.0001)     ;
(PID.TID 0000.0001) salt_EvPrRn = /* Salin. of Evap/Prec/R (UNSET=use local S)(psu)*/
(PID.TID 0000.0001)                 0.000000000000000E+00
(PID.TID 0000.0001)     ;
(PID.TID 0000.0001) selectAddFluid = /* option for mass source/sink of fluid (=0: off) */
(PID.TID 0000.0001)                       0
(PID.TID 0000.0001)     ;
(PID.TID 0000.0001) temp_addMass = /* Temp. of addMass array (UNSET=use local T)(oC)*/
(PID.TID 0000.0001)                 1.234567000000000E+05
(PID.TID 0000.0001)     ;
(PID.TID 0000.0001) salt_addMass = /* Salin. of addMass array (UNSET=use local S)(psu)*/
(PID.TID 0000.0001)                 0.000000000000000E+00
(PID.TID 0000.0001)     ;
(PID.TID 0000.0001) convertFW2Salt = /* convert F.W. Flux to Salt Flux (-1=use local S)(psu)*/
(PID.TID 0000.0001)                 3.500000000000000E+01
(PID.TID 0000.0001)     ;
(PID.TID 0000.0001) use3Dsolver = /* use 3-D pressure solver on/off flag */
(PID.TID 0000.0001)                   F
(PID.TID 0000.0001)     ;
(PID.TID 0000.0001) nonHydrostatic =  /* Non-Hydrostatic on/off flag */
(PID.TID 0000.0001)                   F
(PID.TID 0000.0001)     ;
(PID.TID 0000.0001) nh_Am2 = /* Non-Hydrostatic terms scaling factor */
(PID.TID 0000.0001)                 1.000000000000000E+00
(PID.TID 0000.0001)     ;
(PID.TID 0000.0001) implicitNHPress = /* Non-Hyd Pressure implicit factor (0-1)*/
(PID.TID 0000.0001)                 1.000000000000000E+00
(PID.TID 0000.0001)     ;
(PID.TID 0000.0001) selectNHfreeSurf = /* Non-Hyd (free-)Surface option */
(PID.TID 0000.0001)                       0
(PID.TID 0000.0001)     ;
(PID.TID 0000.0001) quasiHydrostatic = /* Quasi-Hydrostatic on/off flag */
(PID.TID 0000.0001)                   F
(PID.TID 0000.0001)     ;
(PID.TID 0000.0001) calc_wVelocity = /* vertical velocity calculation on/off flag */
(PID.TID 0000.0001)                   T
(PID.TID 0000.0001)     ;
(PID.TID 0000.0001) momStepping =  /* Momentum equation on/off flag */
(PID.TID 0000.0001)                   T
(PID.TID 0000.0001)     ;
(PID.TID 0000.0001) vectorInvariantMomentum= /* Vector-Invariant Momentum on/off */
(PID.TID 0000.0001)                   F
(PID.TID 0000.0001)     ;
(PID.TID 0000.0001) momAdvection =  /* Momentum advection on/off flag */
(PID.TID 0000.0001)                   T
(PID.TID 0000.0001)     ;
(PID.TID 0000.0001) momViscosity =  /* Momentum viscosity on/off flag */
(PID.TID 0000.0001)                   T
(PID.TID 0000.0001)     ;
(PID.TID 0000.0001) momImplVertAdv= /* Momentum implicit vert. advection on/off*/
(PID.TID 0000.0001)                   F
(PID.TID 0000.0001)     ;
(PID.TID 0000.0001) implicitViscosity = /* Implicit viscosity on/off flag */
(PID.TID 0000.0001)                   T
(PID.TID 0000.0001)     ;
(PID.TID 0000.0001) metricTerms =  /* metric-Terms on/off flag */
(PID.TID 0000.0001)                   F
(PID.TID 0000.0001)     ;
(PID.TID 0000.0001) useNHMTerms = /* Non-Hydrostatic Metric-Terms on/off */
(PID.TID 0000.0001)                   F
(PID.TID 0000.0001)     ;
(PID.TID 0000.0001) selectCoriMap = /* Coriolis Map options (0,1,2,3)*/
(PID.TID 0000.0001)                       1
(PID.TID 0000.0001)     0= f-Plane ; 1= Beta-Plane ; 2= Spherical ; 3= read from file
(PID.TID 0000.0001)     ;
(PID.TID 0000.0001) use3dCoriolis = /* 3-D Coriolis on/off flag */
(PID.TID 0000.0001)                   F
(PID.TID 0000.0001)     ;
(PID.TID 0000.0001) useCoriolis =  /* Coriolis on/off flag */
(PID.TID 0000.0001)                   T
(PID.TID 0000.0001)     ;
(PID.TID 0000.0001) useCDscheme =  /* CD scheme on/off flag */
(PID.TID 0000.0001)                   F
(PID.TID 0000.0001)     ;
(PID.TID 0000.0001) useEnergyConservingCoriolis= /* Flx-Form Coriolis scheme flag */
(PID.TID 0000.0001)                   F
(PID.TID 0000.0001)     ;
(PID.TID 0000.0001) useJamartWetPoints= /* Coriolis WetPoints method flag */
(PID.TID 0000.0001)                   T
(PID.TID 0000.0001)     ;
(PID.TID 0000.0001) useJamartMomAdv= /* V.I Non-linear terms Jamart flag */
(PID.TID 0000.0001)                   F
(PID.TID 0000.0001)     ;
(PID.TID 0000.0001) useAbsVorticity= /* V.I Works with f+zeta in Coriolis */
(PID.TID 0000.0001)                   F
(PID.TID 0000.0001)     ;
(PID.TID 0000.0001) selectVortScheme= /* V.I Scheme selector for Vorticity-Term */
(PID.TID 0000.0001)               123456789
(PID.TID 0000.0001)    = 0 : enstrophy (Shallow-Water Eq.) conserving scheme by Sadourny, JAS 75
(PID.TID 0000.0001)    = 1 : same as 0 with modified hFac
(PID.TID 0000.0001)    = 2 : energy conserving scheme (used by Sadourny in JAS 75 paper)
(PID.TID 0000.0001)    = 3 : energy (general) and enstrophy (2D, nonDiv.) conserving scheme
(PID.TID 0000.0001)          from Sadourny (Burridge & Haseler, ECMWF Rep.4, 1977)
(PID.TID 0000.0001)     ;
(PID.TID 0000.0001) upwindVorticity= /* V.I Upwind bias vorticity flag */
(PID.TID 0000.0001)                   F
(PID.TID 0000.0001)     ;
(PID.TID 0000.0001) highOrderVorticity= /* V.I High order vort. advect. flag */
(PID.TID 0000.0001)                   F
(PID.TID 0000.0001)     ;
(PID.TID 0000.0001) upwindShear= /* V.I Upwind vertical Shear advection flag */
(PID.TID 0000.0001)                   F
(PID.TID 0000.0001)     ;
(PID.TID 0000.0001) selectKEscheme= /* V.I Kinetic Energy scheme selector */
(PID.TID 0000.0001)                       0
(PID.TID 0000.0001)     ;
(PID.TID 0000.0001) momForcing =  /* Momentum forcing on/off flag */
(PID.TID 0000.0001)                   T
(PID.TID 0000.0001)     ;
(PID.TID 0000.0001) momPressureForcing =  /* Momentum pressure term on/off flag */
(PID.TID 0000.0001)                   T
(PID.TID 0000.0001)     ;
(PID.TID 0000.0001) implicitIntGravWave= /* Implicit Internal Gravity Wave flag */
(PID.TID 0000.0001)                   F
(PID.TID 0000.0001)     ;
(PID.TID 0000.0001) staggerTimeStep =    /* Stagger time stepping on/off flag */
(PID.TID 0000.0001)                   T
(PID.TID 0000.0001)     ;
(PID.TID 0000.0001) doResetHFactors = /* reset thickness factors @ each time-step */
(PID.TID 0000.0001)                   F
(PID.TID 0000.0001)     ;
(PID.TID 0000.0001) multiDimAdvection =  /* enable/disable Multi-Dim Advection */
(PID.TID 0000.0001)                   T
(PID.TID 0000.0001)     ;
(PID.TID 0000.0001) useMultiDimAdvec =   /* Multi-Dim Advection is/is-not used */
(PID.TID 0000.0001)                   T
(PID.TID 0000.0001)     ;
(PID.TID 0000.0001) implicitDiffusion = /* Implicit Diffusion on/off flag */
(PID.TID 0000.0001)                   T
(PID.TID 0000.0001)     ;
(PID.TID 0000.0001) tempStepping =  /* Temperature equation on/off flag */
(PID.TID 0000.0001)                   T
(PID.TID 0000.0001)     ;
(PID.TID 0000.0001) tempAdvection = /* Temperature advection on/off flag */
(PID.TID 0000.0001)                   T
(PID.TID 0000.0001)     ;
(PID.TID 0000.0001) tempImplVertAdv = /* Temp. implicit vert. advection on/off */
(PID.TID 0000.0001)                   F
(PID.TID 0000.0001)     ;
(PID.TID 0000.0001) tempForcing  =  /* Temperature forcing on/off flag */
(PID.TID 0000.0001)                   T
(PID.TID 0000.0001)     ;
(PID.TID 0000.0001) doThetaClimRelax = /* apply SST relaxation on/off flag */
(PID.TID 0000.0001)                   F
(PID.TID 0000.0001)     ;
(PID.TID 0000.0001) tempIsActiveTr = /* Temp. is a dynamically Active Tracer */
(PID.TID 0000.0001)                   T
(PID.TID 0000.0001)     ;
(PID.TID 0000.0001) saltStepping =  /* Salinity equation on/off flag */
(PID.TID 0000.0001)                   T
(PID.TID 0000.0001)     ;
(PID.TID 0000.0001) saltAdvection = /* Salinity advection on/off flag */
(PID.TID 0000.0001)                   T
(PID.TID 0000.0001)     ;
(PID.TID 0000.0001) saltImplVertAdv = /* Sali. implicit vert. advection on/off */
(PID.TID 0000.0001)                   F
(PID.TID 0000.0001)     ;
(PID.TID 0000.0001) saltForcing  =  /* Salinity forcing on/off flag */
(PID.TID 0000.0001)                   T
(PID.TID 0000.0001)     ;
(PID.TID 0000.0001) doSaltClimRelax = /* apply SSS relaxation on/off flag */
(PID.TID 0000.0001)                   F
(PID.TID 0000.0001)     ;
(PID.TID 0000.0001) saltIsActiveTr = /* Salt  is a dynamically Active Tracer */
(PID.TID 0000.0001)                   F
(PID.TID 0000.0001)     ;
(PID.TID 0000.0001)  readBinaryPrec = /* Precision used for reading binary files */
(PID.TID 0000.0001)                      64
(PID.TID 0000.0001)     ;
(PID.TID 0000.0001) writeBinaryPrec = /* Precision used for writing binary files */
(PID.TID 0000.0001)                      64
(PID.TID 0000.0001)     ;
(PID.TID 0000.0001)  globalFiles = /* write "global" (=not per tile) files */
(PID.TID 0000.0001)                   F
(PID.TID 0000.0001)     ;
(PID.TID 0000.0001)  useSingleCpuIO = /* only master MPI process does I/O */
(PID.TID 0000.0001)                   F
(PID.TID 0000.0001)     ;
(PID.TID 0000.0001)  useSingleCpuInput = /* only master process reads input */
(PID.TID 0000.0001)                   F
(PID.TID 0000.0001)     ;
(PID.TID 0000.0001) /* debLev[*]  : level of debug & auxiliary message printing */
(PID.TID 0000.0001) debLevZero =  0 ; /* level of disabled aux. msg printing */
(PID.TID 0000.0001)    debLevA =  1 ; /* level of minimum  aux. msg printing */
(PID.TID 0000.0001)    debLevB =  2 ; /* level of low aux. print (report read-file opening)*/
(PID.TID 0000.0001)    debLevC =  3 ; /* level of moderate debug prt (most pkgs debug msg) */
(PID.TID 0000.0001)    debLevD =  4 ; /* level of enhanced debug prt (add DEBUG_STATS prt) */
(PID.TID 0000.0001)    debLevE =  5 ; /* level of extensive debug printing */
(PID.TID 0000.0001) debugLevel =  /* select debug printing level */
(PID.TID 0000.0001)                       2
(PID.TID 0000.0001)     ;
(PID.TID 0000.0001) //
(PID.TID 0000.0001) // Elliptic solver(s) paramters ( PARM02 in namelist )
(PID.TID 0000.0001) //
(PID.TID 0000.0001) cg2dMaxIters =   /* Upper limit on 2d con. grad iterations  */
(PID.TID 0000.0001)                    1000
(PID.TID 0000.0001)     ;
(PID.TID 0000.0001) cg2dChkResFreq =   /* 2d con. grad convergence test frequency */
(PID.TID 0000.0001)                       1
(PID.TID 0000.0001)     ;
(PID.TID 0000.0001) cg2dUseMinResSol= /* use cg2d last-iter(=0) / min-resid.(=1) solution */
(PID.TID 0000.0001)                       0
(PID.TID 0000.0001)     ;
(PID.TID 0000.0001) cg2dTargetResidual =   /* 2d con. grad target residual  */
(PID.TID 0000.0001)                 9.999999999999999E-12
(PID.TID 0000.0001)     ;
(PID.TID 0000.0001) cg2dTargetResWunit =   /* CG2d target residual [W units] */
(PID.TID 0000.0001)                -1.000000000000000E+00
(PID.TID 0000.0001)     ;
(PID.TID 0000.0001) cg2dPreCondFreq =   /* Freq. for updating cg2d preconditioner */
(PID.TID 0000.0001)                       1
(PID.TID 0000.0001)     ;
(PID.TID 0000.0001) useSRCGSolver =  /* use single reduction CG solver(s) */
(PID.TID 0000.0001)                   F
(PID.TID 0000.0001)     ;
(PID.TID 0000.0001) printResidualFreq = /* Freq. for printing CG residual */
(PID.TID 0000.0001)                       0
(PID.TID 0000.0001)     ;
(PID.TID 0000.0001) //
(PID.TID 0000.0001) // Time stepping paramters ( PARM03 in namelist )
(PID.TID 0000.0001) //
(PID.TID 0000.0001) deltaTMom =   /* Momentum equation timestep ( s ) */
(PID.TID 0000.0001)                 1.200000000000000E+03
(PID.TID 0000.0001)     ;
(PID.TID 0000.0001) deltaTFreeSurf = /* FreeSurface equation timestep ( s ) */
(PID.TID 0000.0001)                 1.200000000000000E+03
(PID.TID 0000.0001)     ;
(PID.TID 0000.0001) dTtracerLev =  /* Tracer equation timestep ( s ) */
(PID.TID 0000.0001)    40 @  1.200000000000000E+03              /* K =  1: 40 */
(PID.TID 0000.0001)     ;
(PID.TID 0000.0001) deltaTClock  =   /* Model clock timestep ( s ) */
(PID.TID 0000.0001)                 1.200000000000000E+03
(PID.TID 0000.0001)     ;
(PID.TID 0000.0001) cAdjFreq =   /* Convective adjustment interval ( s ) */
(PID.TID 0000.0001)                 0.000000000000000E+00
(PID.TID 0000.0001)     ;
(PID.TID 0000.0001) momForcingOutAB = /* =1: take Momentum Forcing out of Adams-Bash. stepping */
(PID.TID 0000.0001)                       0
(PID.TID 0000.0001)     ;
(PID.TID 0000.0001) tracForcingOutAB = /* =1: take T,S,pTr Forcing out of Adams-Bash. stepping */
(PID.TID 0000.0001)                       0
(PID.TID 0000.0001)     ;
(PID.TID 0000.0001) momDissip_In_AB = /* put Dissipation Tendency in Adams-Bash. stepping */
(PID.TID 0000.0001)                   T
(PID.TID 0000.0001)     ;
(PID.TID 0000.0001) doAB_onGtGs = /* apply AB on Tendencies (rather than on T,S)*/
(PID.TID 0000.0001)                   T
(PID.TID 0000.0001)     ;
(PID.TID 0000.0001) abEps =   /* Adams-Bashforth-2 stabilizing weight */
(PID.TID 0000.0001)                 1.000000000000000E-02
(PID.TID 0000.0001)     ;
(PID.TID 0000.0001) pickupStrictlyMatch= /* stop if pickup do not strictly match */
(PID.TID 0000.0001)                   T
(PID.TID 0000.0001)     ;
(PID.TID 0000.0001) nIter0   =   /* Run starting timestep number */
(PID.TID 0000.0001)                      36
(PID.TID 0000.0001)     ;
(PID.TID 0000.0001) nTimeSteps = /* Number of timesteps */
(PID.TID 0000.0001)                      12
(PID.TID 0000.0001)     ;
(PID.TID 0000.0001) nEndIter =   /* Run ending timestep number */
(PID.TID 0000.0001)                      48
(PID.TID 0000.0001)     ;
(PID.TID 0000.0001) baseTime =   /* Model base time ( s ) */
(PID.TID 0000.0001)                 0.000000000000000E+00
(PID.TID 0000.0001)     ;
(PID.TID 0000.0001) startTime =  /* Run start time ( s ) */
(PID.TID 0000.0001)                 4.320000000000000E+04
(PID.TID 0000.0001)     ;
(PID.TID 0000.0001) endTime  =   /* Integration ending time ( s ) */
(PID.TID 0000.0001)                 5.760000000000000E+04
(PID.TID 0000.0001)     ;
(PID.TID 0000.0001) pChkPtFreq = /* Permanent restart/pickup file interval ( s ) */
(PID.TID 0000.0001)                 0.000000000000000E+00
(PID.TID 0000.0001)     ;
(PID.TID 0000.0001) chkPtFreq  = /* Rolling restart/pickup file interval ( s ) */
(PID.TID 0000.0001)                 0.000000000000000E+00
(PID.TID 0000.0001)     ;
(PID.TID 0000.0001) pickup_write_mdsio =   /* Model IO flag. */
(PID.TID 0000.0001)                   T
(PID.TID 0000.0001)     ;
(PID.TID 0000.0001) pickup_read_mdsio =   /* Model IO flag. */
(PID.TID 0000.0001)                   T
(PID.TID 0000.0001)     ;
(PID.TID 0000.0001) pickup_write_mnc =   /* Model IO flag. */
(PID.TID 0000.0001)                   F
(PID.TID 0000.0001)     ;
(PID.TID 0000.0001) pickup_read_mnc =   /* Model IO flag. */
(PID.TID 0000.0001)                   F
(PID.TID 0000.0001)     ;
(PID.TID 0000.0001) pickup_write_immed =   /* Model IO flag. */
(PID.TID 0000.0001)                   F
(PID.TID 0000.0001)     ;
(PID.TID 0000.0001) writePickupAtEnd =   /* Model IO flag. */
(PID.TID 0000.0001)                   T
(PID.TID 0000.0001)     ;
(PID.TID 0000.0001) dumpFreq =   /* Model state write out interval ( s ). */
(PID.TID 0000.0001)                 0.000000000000000E+00
(PID.TID 0000.0001)     ;
(PID.TID 0000.0001) dumpInitAndLast= /* write out Initial & Last iter. model state */
(PID.TID 0000.0001)                   T
(PID.TID 0000.0001)     ;
(PID.TID 0000.0001) snapshot_mdsio =   /* Model IO flag. */
(PID.TID 0000.0001)                   F
(PID.TID 0000.0001)     ;
(PID.TID 0000.0001) snapshot_mnc =   /* Model IO flag. */
(PID.TID 0000.0001)                   T
(PID.TID 0000.0001)     ;
(PID.TID 0000.0001) monitorFreq =   /* Monitor output interval ( s ). */
(PID.TID 0000.0001)                 1.200000000000000E+03
(PID.TID 0000.0001)     ;
(PID.TID 0000.0001) monitorSelect = /* select group of variables to monitor */
(PID.TID 0000.0001)                       2
(PID.TID 0000.0001)     ;
(PID.TID 0000.0001) monitor_stdio =   /* Model IO flag. */
(PID.TID 0000.0001)                   T
(PID.TID 0000.0001)     ;
(PID.TID 0000.0001) monitor_mnc =   /* Model IO flag. */
(PID.TID 0000.0001)                   F
(PID.TID 0000.0001)     ;
(PID.TID 0000.0001) externForcingPeriod =   /* forcing period (s) */
(PID.TID 0000.0001)                 0.000000000000000E+00
(PID.TID 0000.0001)     ;
(PID.TID 0000.0001) externForcingCycle =   /* period of the cyle (s). */
(PID.TID 0000.0001)                 0.000000000000000E+00
(PID.TID 0000.0001)     ;
(PID.TID 0000.0001) tauThetaClimRelax =   /* relaxation time scale (s) */
(PID.TID 0000.0001)                 0.000000000000000E+00
(PID.TID 0000.0001)     ;
(PID.TID 0000.0001) tauSaltClimRelax =   /* relaxation time scale (s) */
(PID.TID 0000.0001)                 0.000000000000000E+00
(PID.TID 0000.0001)     ;
(PID.TID 0000.0001) latBandClimRelax =   /* max. Lat. where relaxation */
(PID.TID 0000.0001)                 7.800000000000000E+04
(PID.TID 0000.0001)     ;
(PID.TID 0000.0001) //
(PID.TID 0000.0001) // Gridding paramters ( PARM04 in namelist )
(PID.TID 0000.0001) //
(PID.TID 0000.0001) usingCartesianGrid = /* Cartesian coordinates flag ( True/False ) */
(PID.TID 0000.0001)                   T
(PID.TID 0000.0001)     ;
(PID.TID 0000.0001) usingCylindricalGrid = /* Cylindrical coordinates flag ( True/False ) */
(PID.TID 0000.0001)                   F
(PID.TID 0000.0001)     ;
(PID.TID 0000.0001) usingSphericalPolarGrid = /* Spherical coordinates flag ( True/False ) */
(PID.TID 0000.0001)                   F
(PID.TID 0000.0001)     ;
(PID.TID 0000.0001) usingCurvilinearGrid = /* Curvilinear coordinates flag ( True/False ) */
(PID.TID 0000.0001)                   F
(PID.TID 0000.0001)     ;
(PID.TID 0000.0001) selectSigmaCoord = /* Hybrid-Sigma Vert. Coordinate option */
(PID.TID 0000.0001)                       0
(PID.TID 0000.0001)     ;
(PID.TID 0000.0001) Ro_SeaLevel = /* r(1) ( units of r ==  m ) */
(PID.TID 0000.0001)                 0.000000000000000E+00
(PID.TID 0000.0001)     ;
(PID.TID 0000.0001) rSigmaBnd = /* r/sigma transition ( units of r ==  m ) */
(PID.TID 0000.0001)                 1.234567000000000E+05
(PID.TID 0000.0001)     ;
(PID.TID 0000.0001) rkSign =   /* index orientation relative to vertical coordinate */
(PID.TID 0000.0001)                -1.000000000000000E+00
(PID.TID 0000.0001)     ;
(PID.TID 0000.0001) gravitySign = /* gravity orientation relative to vertical coordinate */
(PID.TID 0000.0001)                -1.000000000000000E+00
(PID.TID 0000.0001)     ;
(PID.TID 0000.0001) mass2rUnit = /* convert mass per unit area [kg/m2] to r-units [m] */
(PID.TID 0000.0001)                 9.661835748792270E-04
(PID.TID 0000.0001)     ;
(PID.TID 0000.0001) rUnit2mass = /* convert r-units [m] to mass per unit area [kg/m2] */
(PID.TID 0000.0001)                 1.035000000000000E+03
(PID.TID 0000.0001)     ;
(PID.TID 0000.0001) drC =   /* C spacing ( units of r ) */
(PID.TID 0000.0001)                 2.500000000000000E+00,      /* K =  1 */
(PID.TID 0000.0001)    39 @  5.000000000000000E+00,             /* K =  2: 40 */
(PID.TID 0000.0001)                 2.500000000000000E+00       /* K = 41 */
(PID.TID 0000.0001)     ;
(PID.TID 0000.0001) drF =   /* W spacing ( units of r ) */
(PID.TID 0000.0001)    40 @  5.000000000000000E+00              /* K =  1: 40 */
(PID.TID 0000.0001)     ;
(PID.TID 0000.0001) delX = /* U spacing ( m - cartesian, degrees - spherical ) */
(PID.TID 0000.0001)    50 @  1.000000000000000E+03              /* I =  1: 50 */
(PID.TID 0000.0001)     ;
(PID.TID 0000.0001) delY = /* V spacing ( m - cartesian, degrees - spherical ) */
(PID.TID 0000.0001)    26 @  1.000000000000000E+03              /* J =  1: 26 */
(PID.TID 0000.0001)     ;
(PID.TID 0000.0001) xgOrigin = /* X-axis origin of West  edge (cartesian: m, lat-lon: deg) */
(PID.TID 0000.0001)                 0.000000000000000E+00
(PID.TID 0000.0001)     ;
(PID.TID 0000.0001) ygOrigin = /* Y-axis origin of South edge (cartesian: m, lat-lon: deg) */
(PID.TID 0000.0001)                 0.000000000000000E+00
(PID.TID 0000.0001)     ;
(PID.TID 0000.0001) rSphere =  /* Radius ( ignored - cartesian, m - spherical ) */
(PID.TID 0000.0001)                 6.370000000000000E+06
(PID.TID 0000.0001)     ;
(PID.TID 0000.0001) deepAtmosphere = /* Deep/Shallow Atmosphere flag (True/False) */
(PID.TID 0000.0001)                   F
(PID.TID 0000.0001)     ;
(PID.TID 0000.0001) xC =  /* xC(:,1,:,1) : P-point X coord ( deg. or m if cartesian) */
(PID.TID 0000.0001)                 5.000000000000000E+02,      /* I =  1 */
(PID.TID 0000.0001)                 1.500000000000000E+03,      /* I =  2 */
(PID.TID 0000.0001)                 2.500000000000000E+03,      /* I =  3 */
(PID.TID 0000.0001)                 3.500000000000000E+03,      /* I =  4 */
(PID.TID 0000.0001)                 4.500000000000000E+03,      /* I =  5 */
(PID.TID 0000.0001)                 5.500000000000000E+03,      /* I =  6 */
(PID.TID 0000.0001)                 6.500000000000000E+03,      /* I =  7 */
(PID.TID 0000.0001)                 7.500000000000000E+03,      /* I =  8 */
(PID.TID 0000.0001)                 8.500000000000000E+03,      /* I =  9 */
(PID.TID 0000.0001)                 9.500000000000000E+03,      /* I = 10 */
(PID.TID 0000.0001)                 1.050000000000000E+04,      /* I = 11 */
(PID.TID 0000.0001)                 1.150000000000000E+04,      /* I = 12 */
(PID.TID 0000.0001)                 1.250000000000000E+04,      /* I = 13 */
(PID.TID 0000.0001)                 1.350000000000000E+04,      /* I = 14 */
(PID.TID 0000.0001)                 1.450000000000000E+04,      /* I = 15 */
(PID.TID 0000.0001)                 1.550000000000000E+04,      /* I = 16 */
(PID.TID 0000.0001)                 1.650000000000000E+04,      /* I = 17 */
(PID.TID 0000.0001)                 1.750000000000000E+04,      /* I = 18 */
(PID.TID 0000.0001)                 1.850000000000000E+04,      /* I = 19 */
(PID.TID 0000.0001)                 1.950000000000000E+04,      /* I = 20 */
(PID.TID 0000.0001)                 2.050000000000000E+04,      /* I = 21 */
(PID.TID 0000.0001)                 2.150000000000000E+04,      /* I = 22 */
(PID.TID 0000.0001)                 2.250000000000000E+04,      /* I = 23 */
(PID.TID 0000.0001)                 2.350000000000000E+04,      /* I = 24 */
(PID.TID 0000.0001)                 2.450000000000000E+04,      /* I = 25 */
(PID.TID 0000.0001)                 2.550000000000000E+04,      /* I = 26 */
(PID.TID 0000.0001)                 2.650000000000000E+04,      /* I = 27 */
(PID.TID 0000.0001)                 2.750000000000000E+04,      /* I = 28 */
(PID.TID 0000.0001)                 2.850000000000000E+04,      /* I = 29 */
(PID.TID 0000.0001)                 2.950000000000000E+04,      /* I = 30 */
(PID.TID 0000.0001)                 3.050000000000000E+04,      /* I = 31 */
(PID.TID 0000.0001)                 3.150000000000000E+04,      /* I = 32 */
(PID.TID 0000.0001)                 3.250000000000000E+04,      /* I = 33 */
(PID.TID 0000.0001)                 3.350000000000000E+04,      /* I = 34 */
(PID.TID 0000.0001)                 3.450000000000000E+04,      /* I = 35 */
(PID.TID 0000.0001)                 3.550000000000000E+04,      /* I = 36 */
(PID.TID 0000.0001)                 3.650000000000000E+04,      /* I = 37 */
(PID.TID 0000.0001)                 3.750000000000000E+04,      /* I = 38 */
(PID.TID 0000.0001)                 3.850000000000000E+04,      /* I = 39 */
(PID.TID 0000.0001)                 3.950000000000000E+04,      /* I = 40 */
(PID.TID 0000.0001)                 4.050000000000000E+04,      /* I = 41 */
(PID.TID 0000.0001)                 4.150000000000000E+04,      /* I = 42 */
(PID.TID 0000.0001)                 4.250000000000000E+04,      /* I = 43 */
(PID.TID 0000.0001)                 4.350000000000000E+04,      /* I = 44 */
(PID.TID 0000.0001)                 4.450000000000000E+04,      /* I = 45 */
(PID.TID 0000.0001)                 4.550000000000000E+04,      /* I = 46 */
(PID.TID 0000.0001)                 4.650000000000000E+04,      /* I = 47 */
(PID.TID 0000.0001)                 4.750000000000000E+04,      /* I = 48 */
(PID.TID 0000.0001)                 4.850000000000000E+04,      /* I = 49 */
(PID.TID 0000.0001)                 4.950000000000000E+04       /* I = 50 */
(PID.TID 0000.0001)     ;
(PID.TID 0000.0001) yC =  /* yC(1,:,1,:) : P-point Y coord ( deg. or m if cartesian) */
(PID.TID 0000.0001)                 5.000000000000000E+02,      /* J =  1 */
(PID.TID 0000.0001)                 1.500000000000000E+03,      /* J =  2 */
(PID.TID 0000.0001)                 2.500000000000000E+03,      /* J =  3 */
(PID.TID 0000.0001)                 3.500000000000000E+03,      /* J =  4 */
(PID.TID 0000.0001)                 4.500000000000000E+03,      /* J =  5 */
(PID.TID 0000.0001)                 5.500000000000000E+03,      /* J =  6 */
(PID.TID 0000.0001)                 6.500000000000000E+03,      /* J =  7 */
(PID.TID 0000.0001)                 7.500000000000000E+03,      /* J =  8 */
(PID.TID 0000.0001)                 8.500000000000000E+03,      /* J =  9 */
(PID.TID 0000.0001)                 9.500000000000000E+03,      /* J = 10 */
(PID.TID 0000.0001)                 1.050000000000000E+04,      /* J = 11 */
(PID.TID 0000.0001)                 1.150000000000000E+04,      /* J = 12 */
(PID.TID 0000.0001)                 1.250000000000000E+04,      /* J = 13 */
(PID.TID 0000.0001)                 1.350000000000000E+04,      /* J = 14 */
(PID.TID 0000.0001)                 1.450000000000000E+04,      /* J = 15 */
(PID.TID 0000.0001)                 1.550000000000000E+04,      /* J = 16 */
(PID.TID 0000.0001)                 1.650000000000000E+04,      /* J = 17 */
(PID.TID 0000.0001)                 1.750000000000000E+04,      /* J = 18 */
(PID.TID 0000.0001)                 1.850000000000000E+04,      /* J = 19 */
(PID.TID 0000.0001)                 1.950000000000000E+04,      /* J = 20 */
(PID.TID 0000.0001)                 2.050000000000000E+04,      /* J = 21 */
(PID.TID 0000.0001)                 2.150000000000000E+04,      /* J = 22 */
(PID.TID 0000.0001)                 2.250000000000000E+04,      /* J = 23 */
(PID.TID 0000.0001)                 2.350000000000000E+04,      /* J = 24 */
(PID.TID 0000.0001)                 2.450000000000000E+04,      /* J = 25 */
(PID.TID 0000.0001)                 2.550000000000000E+04       /* J = 26 */
(PID.TID 0000.0001)     ;
(PID.TID 0000.0001) rcoord = /* P-point R coordinate (  units of r ) */
(PID.TID 0000.0001)                -2.500000000000000E+00,      /* K =  1 */
(PID.TID 0000.0001)                -7.500000000000000E+00,      /* K =  2 */
(PID.TID 0000.0001)                -1.250000000000000E+01,      /* K =  3 */
(PID.TID 0000.0001)                -1.750000000000000E+01,      /* K =  4 */
(PID.TID 0000.0001)                -2.250000000000000E+01,      /* K =  5 */
(PID.TID 0000.0001)                -2.750000000000000E+01,      /* K =  6 */
(PID.TID 0000.0001)                -3.250000000000000E+01,      /* K =  7 */
(PID.TID 0000.0001)                -3.750000000000000E+01,      /* K =  8 */
(PID.TID 0000.0001)                -4.250000000000000E+01,      /* K =  9 */
(PID.TID 0000.0001)                -4.750000000000000E+01,      /* K = 10 */
(PID.TID 0000.0001)                -5.250000000000000E+01,      /* K = 11 */
(PID.TID 0000.0001)                -5.750000000000000E+01,      /* K = 12 */
(PID.TID 0000.0001)                -6.250000000000000E+01,      /* K = 13 */
(PID.TID 0000.0001)                -6.750000000000000E+01,      /* K = 14 */
(PID.TID 0000.0001)                -7.250000000000000E+01,      /* K = 15 */
(PID.TID 0000.0001)                -7.750000000000000E+01,      /* K = 16 */
(PID.TID 0000.0001)                -8.250000000000000E+01,      /* K = 17 */
(PID.TID 0000.0001)                -8.750000000000000E+01,      /* K = 18 */
(PID.TID 0000.0001)                -9.250000000000000E+01,      /* K = 19 */
(PID.TID 0000.0001)                -9.750000000000000E+01,      /* K = 20 */
(PID.TID 0000.0001)                -1.025000000000000E+02,      /* K = 21 */
(PID.TID 0000.0001)                -1.075000000000000E+02,      /* K = 22 */
(PID.TID 0000.0001)                -1.125000000000000E+02,      /* K = 23 */
(PID.TID 0000.0001)                -1.175000000000000E+02,      /* K = 24 */
(PID.TID 0000.0001)                -1.225000000000000E+02,      /* K = 25 */
(PID.TID 0000.0001)                -1.275000000000000E+02,      /* K = 26 */
(PID.TID 0000.0001)                -1.325000000000000E+02,      /* K = 27 */
(PID.TID 0000.0001)                -1.375000000000000E+02,      /* K = 28 */
(PID.TID 0000.0001)                -1.425000000000000E+02,      /* K = 29 */
(PID.TID 0000.0001)                -1.475000000000000E+02,      /* K = 30 */
(PID.TID 0000.0001)                -1.525000000000000E+02,      /* K = 31 */
(PID.TID 0000.0001)                -1.575000000000000E+02,      /* K = 32 */
(PID.TID 0000.0001)                -1.625000000000000E+02,      /* K = 33 */
(PID.TID 0000.0001)                -1.675000000000000E+02,      /* K = 34 */
(PID.TID 0000.0001)                -1.725000000000000E+02,      /* K = 35 */
(PID.TID 0000.0001)                -1.775000000000000E+02,      /* K = 36 */
(PID.TID 0000.0001)                -1.825000000000000E+02,      /* K = 37 */
(PID.TID 0000.0001)                -1.875000000000000E+02,      /* K = 38 */
(PID.TID 0000.0001)                -1.925000000000000E+02,      /* K = 39 */
(PID.TID 0000.0001)                -1.975000000000000E+02       /* K = 40 */
(PID.TID 0000.0001)     ;
(PID.TID 0000.0001) rF =   /* W-Interf. R coordinate (  units of r ) */
(PID.TID 0000.0001)                 0.000000000000000E+00,      /* K =  1 */
(PID.TID 0000.0001)                -5.000000000000000E+00,      /* K =  2 */
(PID.TID 0000.0001)                -1.000000000000000E+01,      /* K =  3 */
(PID.TID 0000.0001)                -1.500000000000000E+01,      /* K =  4 */
(PID.TID 0000.0001)                -2.000000000000000E+01,      /* K =  5 */
(PID.TID 0000.0001)                -2.500000000000000E+01,      /* K =  6 */
(PID.TID 0000.0001)                -3.000000000000000E+01,      /* K =  7 */
(PID.TID 0000.0001)                -3.500000000000000E+01,      /* K =  8 */
(PID.TID 0000.0001)                -4.000000000000000E+01,      /* K =  9 */
(PID.TID 0000.0001)                -4.500000000000000E+01,      /* K = 10 */
(PID.TID 0000.0001)                -5.000000000000000E+01,      /* K = 11 */
(PID.TID 0000.0001)                -5.500000000000000E+01,      /* K = 12 */
(PID.TID 0000.0001)                -6.000000000000000E+01,      /* K = 13 */
(PID.TID 0000.0001)                -6.500000000000000E+01,      /* K = 14 */
(PID.TID 0000.0001)                -7.000000000000000E+01,      /* K = 15 */
(PID.TID 0000.0001)                -7.500000000000000E+01,      /* K = 16 */
(PID.TID 0000.0001)                -8.000000000000000E+01,      /* K = 17 */
(PID.TID 0000.0001)                -8.500000000000000E+01,      /* K = 18 */
(PID.TID 0000.0001)                -9.000000000000000E+01,      /* K = 19 */
(PID.TID 0000.0001)                -9.500000000000000E+01,      /* K = 20 */
(PID.TID 0000.0001)                -1.000000000000000E+02,      /* K = 21 */
(PID.TID 0000.0001)                -1.050000000000000E+02,      /* K = 22 */
(PID.TID 0000.0001)                -1.100000000000000E+02,      /* K = 23 */
(PID.TID 0000.0001)                -1.150000000000000E+02,      /* K = 24 */
(PID.TID 0000.0001)                -1.200000000000000E+02,      /* K = 25 */
(PID.TID 0000.0001)                -1.250000000000000E+02,      /* K = 26 */
(PID.TID 0000.0001)                -1.300000000000000E+02,      /* K = 27 */
(PID.TID 0000.0001)                -1.350000000000000E+02,      /* K = 28 */
(PID.TID 0000.0001)                -1.400000000000000E+02,      /* K = 29 */
(PID.TID 0000.0001)                -1.450000000000000E+02,      /* K = 30 */
(PID.TID 0000.0001)                -1.500000000000000E+02,      /* K = 31 */
(PID.TID 0000.0001)                -1.550000000000000E+02,      /* K = 32 */
(PID.TID 0000.0001)                -1.600000000000000E+02,      /* K = 33 */
(PID.TID 0000.0001)                -1.650000000000000E+02,      /* K = 34 */
(PID.TID 0000.0001)                -1.700000000000000E+02,      /* K = 35 */
(PID.TID 0000.0001)                -1.750000000000000E+02,      /* K = 36 */
(PID.TID 0000.0001)                -1.800000000000000E+02,      /* K = 37 */
(PID.TID 0000.0001)                -1.850000000000000E+02,      /* K = 38 */
(PID.TID 0000.0001)                -1.900000000000000E+02,      /* K = 39 */
(PID.TID 0000.0001)                -1.950000000000000E+02,      /* K = 40 */
(PID.TID 0000.0001)                -2.000000000000000E+02       /* K = 41 */
(PID.TID 0000.0001)     ;
(PID.TID 0000.0001) deepFacC = /* deep-model grid factor @ cell-Center (-) */
(PID.TID 0000.0001)    40 @  1.000000000000000E+00              /* K =  1: 40 */
(PID.TID 0000.0001)     ;
(PID.TID 0000.0001) deepFacF = /* deep-model grid factor @ W-Interface (-) */
(PID.TID 0000.0001)    41 @  1.000000000000000E+00              /* K =  1: 41 */
(PID.TID 0000.0001)     ;
(PID.TID 0000.0001) rVel2wUnit = /* convert units: rVel -> wSpeed (=1 if z-coord)*/
(PID.TID 0000.0001)    41 @  1.000000000000000E+00              /* K =  1: 41 */
(PID.TID 0000.0001)     ;
(PID.TID 0000.0001) wUnit2rVel = /* convert units: wSpeed -> rVel (=1 if z-coord)*/
(PID.TID 0000.0001)    41 @  1.000000000000000E+00              /* K =  1: 41 */
(PID.TID 0000.0001)     ;
(PID.TID 0000.0001) dBdrRef = /* Vertical grad. of reference buoyancy [(m/s/r)^2] */
(PID.TID 0000.0001)    40 @  0.000000000000000E+00              /* K =  1: 40 */
(PID.TID 0000.0001)     ;
(PID.TID 0000.0001) rotateGrid = /* use rotated grid ( True/False ) */
(PID.TID 0000.0001)                   F
(PID.TID 0000.0001)     ;
(PID.TID 0000.0001) phiEuler = /* Euler angle, rotation about original z-coordinate [rad] */
(PID.TID 0000.0001)                 0.000000000000000E+00
(PID.TID 0000.0001)     ;
(PID.TID 0000.0001) thetaEuler = /* Euler angle, rotation about new x-coordinate [rad] */
(PID.TID 0000.0001)                 0.000000000000000E+00
(PID.TID 0000.0001)     ;
(PID.TID 0000.0001) psiEuler = /* Euler angle, rotation about new z-coordinate [rad] */
(PID.TID 0000.0001)                 0.000000000000000E+00
(PID.TID 0000.0001)     ;
(PID.TID 0000.0001) dxF =  /* dxF(:,1,:,1) ( units: m ) */
(PID.TID 0000.0001)    50 @  1.000000000000000E+03              /* I =  1: 50 */
(PID.TID 0000.0001)     ;
(PID.TID 0000.0001) dxF =  /* dxF(1,:,1,:) ( units: m ) */
(PID.TID 0000.0001)    26 @  1.000000000000000E+03              /* J =  1: 26 */
(PID.TID 0000.0001)     ;
(PID.TID 0000.0001) dyF =  /* dyF(:,1,:,1) ( units: m ) */
(PID.TID 0000.0001)    50 @  1.000000000000000E+03              /* I =  1: 50 */
(PID.TID 0000.0001)     ;
(PID.TID 0000.0001) dyF =  /* dyF(1,:,1,:) ( units: m ) */
(PID.TID 0000.0001)    26 @  1.000000000000000E+03              /* J =  1: 26 */
(PID.TID 0000.0001)     ;
(PID.TID 0000.0001) dxG =  /* dxG(:,1,:,1) ( units: m ) */
(PID.TID 0000.0001)    50 @  1.000000000000000E+03              /* I =  1: 50 */
(PID.TID 0000.0001)     ;
(PID.TID 0000.0001) dxG =  /* dxG(1,:,1,:) ( units: m ) */
(PID.TID 0000.0001)    26 @  1.000000000000000E+03              /* J =  1: 26 */
(PID.TID 0000.0001)     ;
(PID.TID 0000.0001) dyG =  /* dyG(:,1,:,1) ( units: m ) */
(PID.TID 0000.0001)    50 @  1.000000000000000E+03              /* I =  1: 50 */
(PID.TID 0000.0001)     ;
(PID.TID 0000.0001) dyG =  /* dyG(1,:,1,:) ( units: m ) */
(PID.TID 0000.0001)    26 @  1.000000000000000E+03              /* J =  1: 26 */
(PID.TID 0000.0001)     ;
(PID.TID 0000.0001) dxC =  /* dxC(:,1,:,1) ( units: m ) */
(PID.TID 0000.0001)    50 @  1.000000000000000E+03              /* I =  1: 50 */
(PID.TID 0000.0001)     ;
(PID.TID 0000.0001) dxC =  /* dxC(1,:,1,:) ( units: m ) */
(PID.TID 0000.0001)    26 @  1.000000000000000E+03              /* J =  1: 26 */
(PID.TID 0000.0001)     ;
(PID.TID 0000.0001) dyC =  /* dyC(:,1,:,1) ( units: m ) */
(PID.TID 0000.0001)    50 @  1.000000000000000E+03              /* I =  1: 50 */
(PID.TID 0000.0001)     ;
(PID.TID 0000.0001) dyC =  /* dyC(1,:,1,:) ( units: m ) */
(PID.TID 0000.0001)    26 @  1.000000000000000E+03              /* J =  1: 26 */
(PID.TID 0000.0001)     ;
(PID.TID 0000.0001) dxV =  /* dxV(:,1,:,1) ( units: m ) */
(PID.TID 0000.0001)    50 @  1.000000000000000E+03              /* I =  1: 50 */
(PID.TID 0000.0001)     ;
(PID.TID 0000.0001) dxV =  /* dxV(1,:,1,:) ( units: m ) */
(PID.TID 0000.0001)    26 @  1.000000000000000E+03              /* J =  1: 26 */
(PID.TID 0000.0001)     ;
(PID.TID 0000.0001) dyU =  /* dyU(:,1,:,1) ( units: m ) */
(PID.TID 0000.0001)    50 @  1.000000000000000E+03              /* I =  1: 50 */
(PID.TID 0000.0001)     ;
(PID.TID 0000.0001) dyU =  /* dyU(1,:,1,:) ( units: m ) */
(PID.TID 0000.0001)    26 @  1.000000000000000E+03              /* J =  1: 26 */
(PID.TID 0000.0001)     ;
(PID.TID 0000.0001) rA  =  /* rA (:,1,:,1) ( units: m^2 ) */
(PID.TID 0000.0001)    50 @  1.000000000000000E+06              /* I =  1: 50 */
(PID.TID 0000.0001)     ;
(PID.TID 0000.0001) rA  =  /* rA (1,:,1,:) ( units: m^2 ) */
(PID.TID 0000.0001)    26 @  1.000000000000000E+06              /* J =  1: 26 */
(PID.TID 0000.0001)     ;
(PID.TID 0000.0001) rAw =  /* rAw(:,1,:,1) ( units: m^2 ) */
(PID.TID 0000.0001)    50 @  1.000000000000000E+06              /* I =  1: 50 */
(PID.TID 0000.0001)     ;
(PID.TID 0000.0001) rAw =  /* rAw(1,:,1,:) ( units: m^2 ) */
(PID.TID 0000.0001)    26 @  1.000000000000000E+06              /* J =  1: 26 */
(PID.TID 0000.0001)     ;
(PID.TID 0000.0001) rAs =  /* rAs(:,1,:,1) ( units: m^2 ) */
(PID.TID 0000.0001)    50 @  1.000000000000000E+06              /* I =  1: 50 */
(PID.TID 0000.0001)     ;
(PID.TID 0000.0001) rAs =  /* rAs(1,:,1,:) ( units: m^2 ) */
(PID.TID 0000.0001)    26 @  1.000000000000000E+06              /* J =  1: 26 */
(PID.TID 0000.0001)     ;
(PID.TID 0000.0001) globalArea = /* Integrated horizontal Area (m^2) */
(PID.TID 0000.0001)                 1.250000000000000E+09
(PID.TID 0000.0001)     ;
(PID.TID 0000.0001) // =======================================================
(PID.TID 0000.0001) // End of Model config. summary
(PID.TID 0000.0001) // =======================================================
(PID.TID 0000.0001) 
(PID.TID 0000.0001) == Packages configuration : Check & print summary ==
(PID.TID 0000.0001) 
(PID.TID 0000.0001) GAD_CHECK: #define ALLOW_GENERIC_ADVDIFF
(PID.TID 0000.0001) // =======================================================
(PID.TID 0000.0001) // Check Model config. (CONFIG_CHECK):
(PID.TID 0000.0001) // CONFIG_CHECK : Normal End
(PID.TID 0000.0001) // =======================================================
(PID.TID 0000.0001) 
(PID.TID 0000.0001)  MDS_READ_META: opening file: pickup.0000000036.meta
(PID.TID 0000.0001)  nRecords = 243 ; filePrec =  64 ; fileIter =        36
(PID.TID 0000.0001)     nDims =   2 , dims:
(PID.TID 0000.0001)    1:  50   1  50
(PID.TID 0000.0001)    2:  26   1  26
(PID.TID 0000.0001)     nFlds =   9 , nFl3D =   6 , fields:
(PID.TID 0000.0001)  >Uvel    < >Vvel    < >Theta   < >Salt    < >GuNm1   < >GvNm1   < >EtaN    < >dEtaHdt < >EtaH    <
(PID.TID 0000.0001) missingVal=  1.00000000000000E+00 ; nTimRec =   0 , timeList:
(PID.TID 0000.0001) READ_MFLDS_3D_RL: read field: "Uvel    ", #   1 in fldList, rec=   1
(PID.TID 0000.0001)  MDS_READ_FIELD: opening global file: pickup.0000000036
(PID.TID 0000.0001) READ_MFLDS_3D_RL: read field: "Vvel    ", #   2 in fldList, rec=   2
(PID.TID 0000.0001)  MDS_READ_FIELD: opening global file: pickup.0000000036
(PID.TID 0000.0001) READ_MFLDS_3D_RL: read field: "Theta   ", #   3 in fldList, rec=   3
(PID.TID 0000.0001)  MDS_READ_FIELD: opening global file: pickup.0000000036
(PID.TID 0000.0001) READ_MFLDS_3D_RL: read field: "Salt    ", #   4 in fldList, rec=   4
(PID.TID 0000.0001)  MDS_READ_FIELD: opening global file: pickup.0000000036
(PID.TID 0000.0001) READ_MFLDS_3D_RL: read field: "GuNm1   ", #   5 in fldList, rec=   5
(PID.TID 0000.0001)  MDS_READ_FIELD: opening global file: pickup.0000000036
(PID.TID 0000.0001) READ_MFLDS_3D_RL: read field: "GvNm1   ", #   6 in fldList, rec=   6
(PID.TID 0000.0001)  MDS_READ_FIELD: opening global file: pickup.0000000036
(PID.TID 0000.0001) READ_MFLDS_3D_RL: read field: "EtaN    ", #   7 in fldList, rec= 241
(PID.TID 0000.0001)  MDS_READ_FIELD: opening global file: pickup.0000000036
(PID.TID 0000.0001) READ_MFLDS_CHECK: - normal end ; reset MFLDS file-name: pickup.0000000036
(PID.TID 0000.0001)  write diagnostics summary to file ioUnit:      6
Iter.Nb:        36 ; Time(s):  4.3200000000000E+04
------------------------------------------------------------------------
2D/3D diagnostics: Number of lists:     2
------------------------------------------------------------------------
listId=    1 ; file name: momDiag
 nFlds, nActive,       freq     &     phase        , nLev               
    5  |    5  |    864000.000000         0.000000 |  40
 levels:   1   2   3   4   5   6   7   8   9  10  11  12  13  14  15  16  17  18  19  20  21  22  23  24  25
 levels:  26  27  28  29  30  31  32  33  34  35  36  37  38  39  40
 diag# | name   |   ipt  |  iMate | kLev|   count |   mate.C|           
   147 |momKE   |      1 |      0 |  40 |       0 |
   148 |momHDiv |     41 |      0 |  40 |       0 |
   149 |momVort3|     81 |      0 |  40 |       0 |
   150 |Strain  |    121 |      0 |  40 |       0 |
   151 |Tension |    161 |      0 |  40 |       0 |
------------------------------------------------------------------------
listId=    2 ; file name: viscDiag
 nFlds, nActive,       freq     &     phase        , nLev               
   24  |   24  |    864000.000000         0.000000 |  40
 levels:   1   2   3   4   5   6   7   8   9  10  11  12  13  14  15  16  17  18  19  20  21  22  23  24  25
 levels:  26  27  28  29  30  31  32  33  34  35  36  37  38  39  40
 diag# | name   |   ipt  |  iMate | kLev|   count |   mate.C|           
   123 |VISCAHD |    201 |      0 |  40 |       0 |
   124 |VISCA4D |    241 |      0 |  40 |       0 |
   121 |VISCAHZ |    281 |      0 |  40 |       0 |
   122 |VISCA4Z |    321 |      0 |  40 |       0 |
   129 |VAHDMAX |    361 |      0 |  40 |       0 |
   130 |VA4DMAX |    401 |      0 |  40 |       0 |
   127 |VAHZMAX |    441 |      0 |  40 |       0 |
   128 |VA4ZMAX |    481 |      0 |  40 |       0 |
   133 |VAHDMIN |    521 |      0 |  40 |       0 |
   134 |VA4DMIN |    561 |      0 |  40 |       0 |
   131 |VAHZMIN |    601 |      0 |  40 |       0 |
   132 |VA4ZMIN |    641 |      0 |  40 |       0 |
   137 |VAHDLTH |    681 |      0 |  40 |       0 |
   138 |VA4DLTH |    721 |      0 |  40 |       0 |
   135 |VAHZLTH |    761 |      0 |  40 |       0 |
   136 |VA4ZLTH |    801 |      0 |  40 |       0 |
   141 |VAHDLTHD|    841 |      0 |  40 |       0 |
   142 |VA4DLTHD|    881 |      0 |  40 |       0 |
   139 |VAHZLTHD|    921 |      0 |  40 |       0 |
   140 |VA4ZLTHD|    961 |      0 |  40 |       0 |
   145 |VAHDSMAG|   1001 |      0 |  40 |       0 |
   146 |VA4DSMAG|   1041 |      0 |  40 |       0 |
   143 |VAHZSMAG|   1081 |      0 |  40 |       0 |
   144 |VA4ZSMAG|   1121 |      0 |  40 |       0 |
------------------------------------------------------------------------
Global & Regional Statistics diagnostics: Number of lists:     0
------------------------------------------------------------------------
(PID.TID 0000.0001) // =======================================================
(PID.TID 0000.0001) // Model current state
(PID.TID 0000.0001) // =======================================================
(PID.TID 0000.0001) 
(PID.TID 0000.0001) // =======================================================
(PID.TID 0000.0001) // Begin MONITOR dynamic field statistics
(PID.TID 0000.0001) // =======================================================
(PID.TID 0000.0001) %MON time_tsnumber                =                    36
(PID.TID 0000.0001) %MON time_secondsf                =   4.3200000000000E+04
(PID.TID 0000.0001) %MON dynstat_eta_max              =   4.9203497038625E-04
(PID.TID 0000.0001) %MON dynstat_eta_min              =  -4.7317414867720E-04
(PID.TID 0000.0001) %MON dynstat_eta_mean             =   8.6296349763870E-17
(PID.TID 0000.0001) %MON dynstat_eta_sd               =   3.6032393102179E-04
(PID.TID 0000.0001) %MON dynstat_eta_del2             =   2.3225221891283E-06
(PID.TID 0000.0001) %MON dynstat_uvel_max             =   5.4751418592090E-02
(PID.TID 0000.0001) %MON dynstat_uvel_min             =  -4.7199362218880E-02
(PID.TID 0000.0001) %MON dynstat_uvel_mean            =  -7.5675254665943E-06
(PID.TID 0000.0001) %MON dynstat_uvel_sd              =   6.1016938291240E-03
(PID.TID 0000.0001) %MON dynstat_uvel_del2            =   3.8975344841067E-05
(PID.TID 0000.0001) %MON dynstat_vvel_max             =   5.6046918150884E-02
(PID.TID 0000.0001) %MON dynstat_vvel_min             =  -5.4933021080310E-02
(PID.TID 0000.0001) %MON dynstat_vvel_mean            =   9.7029245015389E-10
(PID.TID 0000.0001) %MON dynstat_vvel_sd              =   9.4304240338762E-03
(PID.TID 0000.0001) %MON dynstat_vvel_del2            =   8.9401595343287E-05
(PID.TID 0000.0001) %MON dynstat_wvel_max             =   1.5736246365679E-03
(PID.TID 0000.0001) %MON dynstat_wvel_min             =  -1.3312745212694E-03
(PID.TID 0000.0001) %MON dynstat_wvel_mean            =   2.1161063562466E-20
(PID.TID 0000.0001) %MON dynstat_wvel_sd              =   2.4223309187731E-04
(PID.TID 0000.0001) %MON dynstat_wvel_del2            =   2.8382381375586E-06
(PID.TID 0000.0001) %MON dynstat_theta_max            =   1.7020389431342E+01
(PID.TID 0000.0001) %MON dynstat_theta_min            =   1.6979609682297E+01
(PID.TID 0000.0001) %MON dynstat_theta_mean           =   1.6999999918015E+01
(PID.TID 0000.0001) %MON dynstat_theta_sd             =   1.8293586125803E-02
(PID.TID 0000.0001) %MON dynstat_theta_del2           =   1.7421205851868E-05
(PID.TID 0000.0001) %MON dynstat_salt_max             =   1.7020387100726E+01
(PID.TID 0000.0001) %MON dynstat_salt_min             =   1.6979612985762E+01
(PID.TID 0000.0001) %MON dynstat_salt_mean            =   1.7000000006198E+01
(PID.TID 0000.0001) %MON dynstat_salt_sd              =   1.7218011876591E-02
(PID.TID 0000.0001) %MON dynstat_salt_del2            =   2.2637631284831E-05
(PID.TID 0000.0001) %MON advcfl_uvel_max              =   6.5701702310508E-02
(PID.TID 0000.0001) %MON advcfl_vvel_max              =   6.7256301781060E-02
(PID.TID 0000.0001) %MON advcfl_wvel_max              =   3.7766991277630E-01
(PID.TID 0000.0001) %MON advcfl_W_hf_max              =   3.7766991277630E-01
(PID.TID 0000.0001) %MON pe_b_mean                    =   3.1841625474231E-09
(PID.TID 0000.0001) %MON ke_max                       =   1.6254542773163E-03
(PID.TID 0000.0001) %MON ke_mean                      =   6.1303153206086E-05
(PID.TID 0000.0001) %MON ke_vol                       =   2.5000000000000E+11
(PID.TID 0000.0001) %MON vort_r_min                   =  -6.7485668907250E-05
(PID.TID 0000.0001) %MON vort_r_max                   =   8.8188324132296E-05
(PID.TID 0000.0001) %MON vort_a_mean                  =   7.2900000000000E-05
(PID.TID 0000.0001) %MON vort_a_sd                    =   1.3914727543680E-05
(PID.TID 0000.0001) %MON vort_p_mean                  =   7.7363265306123E-05
(PID.TID 0000.0001) %MON vort_p_sd                    =   3.4152843064091E-05
(PID.TID 0000.0001) %MON surfExpan_theta_mean         =  -5.3951191277894E-13
(PID.TID 0000.0001) %MON surfExpan_salt_mean          =   9.0038965020867E-14
(PID.TID 0000.0001) // =======================================================
(PID.TID 0000.0001) // End MONITOR dynamic field statistics
(PID.TID 0000.0001) // =======================================================
(PID.TID 0000.0001) SOLVE_FOR_PRESSURE: putPmEinXvector =    F
 cg2d: Sum(rhs),rhsMax =  -7.63833440942108E-14  5.20121865741423E-03
(PID.TID 0000.0001)      cg2d_init_res =   2.38319558976880E-01
(PID.TID 0000.0001)      cg2d_iters(min,last) =      -1      89
(PID.TID 0000.0001)      cg2d_last_res =   7.91859302735587E-12
(PID.TID 0000.0001) // =======================================================
(PID.TID 0000.0001) // Begin MONITOR dynamic field statistics
(PID.TID 0000.0001) // =======================================================
(PID.TID 0000.0001) %MON time_tsnumber                =                    37
(PID.TID 0000.0001) %MON time_secondsf                =   4.4400000000000E+04
(PID.TID 0000.0001) %MON dynstat_eta_max              =   4.9414838187741E-04
(PID.TID 0000.0001) %MON dynstat_eta_min              =  -4.7315812403088E-04
(PID.TID 0000.0001) %MON dynstat_eta_mean             =   9.2107802629471E-17
(PID.TID 0000.0001) %MON dynstat_eta_sd               =   3.5987384469027E-04
(PID.TID 0000.0001) %MON dynstat_eta_del2             =   2.3191031299532E-06
(PID.TID 0000.0001) %MON dynstat_uvel_max             =   5.4509976291766E-02
(PID.TID 0000.0001) %MON dynstat_uvel_min             =  -4.6890882658372E-02
(PID.TID 0000.0001) %MON dynstat_uvel_mean            =  -7.5641214605072E-06
(PID.TID 0000.0001) %MON dynstat_uvel_sd              =   6.0343596916100E-03
(PID.TID 0000.0001) %MON dynstat_uvel_del2            =   3.8764115797072E-05
(PID.TID 0000.0001) %MON dynstat_vvel_max             =   5.5039869950906E-02
(PID.TID 0000.0001) %MON dynstat_vvel_min             =  -5.4276322700066E-02
(PID.TID 0000.0001) %MON dynstat_vvel_mean            =   1.3339066584742E-08
(PID.TID 0000.0001) %MON dynstat_vvel_sd              =   9.4535757308999E-03
(PID.TID 0000.0001) %MON dynstat_vvel_del2            =   8.9164644310240E-05
(PID.TID 0000.0001) %MON dynstat_wvel_max             =   1.5543350408925E-03
(PID.TID 0000.0001) %MON dynstat_wvel_min             =  -1.3053311073807E-03
(PID.TID 0000.0001) %MON dynstat_wvel_mean            =   5.0692241403121E-21
(PID.TID 0000.0001) %MON dynstat_wvel_sd              =   2.4180621403856E-04
(PID.TID 0000.0001) %MON dynstat_wvel_del2            =   2.8215834948158E-06
(PID.TID 0000.0001) %MON dynstat_theta_max            =   1.7020389428838E+01
(PID.TID 0000.0001) %MON dynstat_theta_min            =   1.6979609685190E+01
(PID.TID 0000.0001) %MON dynstat_theta_mean           =   1.6999999918144E+01
(PID.TID 0000.0001) %MON dynstat_theta_sd             =   1.8292468352901E-02
(PID.TID 0000.0001) %MON dynstat_theta_del2           =   1.7460470218611E-05
(PID.TID 0000.0001) %MON dynstat_salt_max             =   1.7020387100725E+01
(PID.TID 0000.0001) %MON dynstat_salt_min             =   1.6979612985764E+01
(PID.TID 0000.0001) %MON dynstat_salt_mean            =   1.7000000006192E+01
(PID.TID 0000.0001) %MON dynstat_salt_sd              =   1.7216426937104E-02
(PID.TID 0000.0001) %MON dynstat_salt_del2            =   2.2642874290655E-05
(PID.TID 0000.0001) %MON advcfl_uvel_max              =   6.5411971550119E-02
(PID.TID 0000.0001) %MON advcfl_vvel_max              =   6.6047843941087E-02
(PID.TID 0000.0001) %MON advcfl_wvel_max              =   3.7304040981420E-01
(PID.TID 0000.0001) %MON advcfl_W_hf_max              =   3.7304040981420E-01
(PID.TID 0000.0001) %MON pe_b_mean                    =   3.1762127398601E-09
(PID.TID 0000.0001) %MON ke_max                       =   1.5638669289329E-03
(PID.TID 0000.0001) %MON ke_mean                      =   6.1104422219849E-05
(PID.TID 0000.0001) %MON ke_vol                       =   2.5000000000000E+11
(PID.TID 0000.0001) %MON vort_r_min                   =  -6.7986984848723E-05
(PID.TID 0000.0001) %MON vort_r_max                   =   8.7621981197086E-05
(PID.TID 0000.0001) %MON vort_a_mean                  =   7.2900000000000E-05
(PID.TID 0000.0001) %MON vort_a_sd                    =   1.3878282745511E-05
(PID.TID 0000.0001) %MON vort_p_mean                  =   7.7363265306123E-05
(PID.TID 0000.0001) %MON vort_p_sd                    =   3.4131969451230E-05
(PID.TID 0000.0001) %MON surfExpan_theta_mean         =  -2.1537863073361E-11
(PID.TID 0000.0001) %MON surfExpan_salt_mean          =   9.8902420262412E-13
(PID.TID 0000.0001) // =======================================================
(PID.TID 0000.0001) // End MONITOR dynamic field statistics
(PID.TID 0000.0001) // =======================================================
 cg2d: Sum(rhs),rhsMax =  -7.72715225139109E-14  5.19667461724087E-03
(PID.TID 0000.0001)      cg2d_init_res =   1.09184558030434E-01
(PID.TID 0000.0001)      cg2d_iters(min,last) =      -1      88
(PID.TID 0000.0001)      cg2d_last_res =   6.06345322793527E-12
(PID.TID 0000.0001) // =======================================================
(PID.TID 0000.0001) // Begin MONITOR dynamic field statistics
(PID.TID 0000.0001) // =======================================================
(PID.TID 0000.0001) %MON time_tsnumber                =                    38
(PID.TID 0000.0001) %MON time_secondsf                =   4.5600000000000E+04
(PID.TID 0000.0001) %MON dynstat_eta_max              =   4.9439986996145E-04
(PID.TID 0000.0001) %MON dynstat_eta_min              =  -4.7145379879078E-04
(PID.TID 0000.0001) %MON dynstat_eta_mean             =   7.2158873081207E-17
(PID.TID 0000.0001) %MON dynstat_eta_sd               =   3.5992418551518E-04
(PID.TID 0000.0001) %MON dynstat_eta_del2             =   2.3144934531786E-06
(PID.TID 0000.0001) %MON dynstat_uvel_max             =   5.4403087100032E-02
(PID.TID 0000.0001) %MON dynstat_uvel_min             =  -4.6725361633498E-02
(PID.TID 0000.0001) %MON dynstat_uvel_mean            =  -7.5644055879071E-06
(PID.TID 0000.0001) %MON dynstat_uvel_sd              =   5.9748989066975E-03
(PID.TID 0000.0001) %MON dynstat_uvel_del2            =   3.8562951860730E-05
(PID.TID 0000.0001) %MON dynstat_vvel_max             =   5.4231369625901E-02
(PID.TID 0000.0001) %MON dynstat_vvel_min             =  -5.3730953358514E-02
(PID.TID 0000.0001) %MON dynstat_vvel_mean            =  -2.2471250985361E-09
(PID.TID 0000.0001) %MON dynstat_vvel_sd              =   9.4858884360037E-03
(PID.TID 0000.0001) %MON dynstat_vvel_del2            =   8.8981079373263E-05
(PID.TID 0000.0001) %MON dynstat_wvel_max             =   1.5416127985599E-03
(PID.TID 0000.0001) %MON dynstat_wvel_min             =  -1.2877026889249E-03
(PID.TID 0000.0001) %MON dynstat_wvel_mean            =   1.8390673625318E-20
(PID.TID 0000.0001) %MON dynstat_wvel_sd              =   2.4176713190964E-04
(PID.TID 0000.0001) %MON dynstat_wvel_del2            =   2.8094516440751E-06
(PID.TID 0000.0001) %MON dynstat_theta_max            =   1.7020389425945E+01
(PID.TID 0000.0001) %MON dynstat_theta_min            =   1.6979609686772E+01
(PID.TID 0000.0001) %MON dynstat_theta_mean           =   1.6999999918106E+01
(PID.TID 0000.0001) %MON dynstat_theta_sd             =   1.8291348785595E-02
(PID.TID 0000.0001) %MON dynstat_theta_del2           =   1.7503164315685E-05
(PID.TID 0000.0001) %MON dynstat_salt_max             =   1.7020387100725E+01
(PID.TID 0000.0001) %MON dynstat_salt_min             =   1.6979612985765E+01
(PID.TID 0000.0001) %MON dynstat_salt_mean            =   1.7000000006193E+01
(PID.TID 0000.0001) %MON dynstat_salt_sd              =   1.7214821119560E-02
(PID.TID 0000.0001) %MON dynstat_salt_del2            =   2.2644252800635E-05
(PID.TID 0000.0001) %MON advcfl_uvel_max              =   6.5283704520039E-02
(PID.TID 0000.0001) %MON advcfl_vvel_max              =   6.5077643551081E-02
(PID.TID 0000.0001) %MON advcfl_wvel_max              =   3.6998707165436E-01
(PID.TID 0000.0001) %MON advcfl_W_hf_max              =   3.6998707165436E-01
(PID.TID 0000.0001) %MON pe_b_mean                    =   3.1771014087926E-09
(PID.TID 0000.0001) %MON ke_max                       =   1.5275310453955E-03
(PID.TID 0000.0001) %MON ke_mean                      =   6.1041135204494E-05
(PID.TID 0000.0001) %MON ke_vol                       =   2.5000000000000E+11
(PID.TID 0000.0001) %MON vort_r_min                   =  -6.8270803705931E-05
(PID.TID 0000.0001) %MON vort_r_max                   =   8.7066112224512E-05
(PID.TID 0000.0001) %MON vort_a_mean                  =   7.2900000000000E-05
(PID.TID 0000.0001) %MON vort_a_sd                    =   1.3846277395815E-05
(PID.TID 0000.0001) %MON vort_p_mean                  =   7.7363265306122E-05
(PID.TID 0000.0001) %MON vort_p_sd                    =   3.4110271251845E-05
(PID.TID 0000.0001) %MON surfExpan_theta_mean         =   6.3713241548764E-12
(PID.TID 0000.0001) %MON surfExpan_salt_mean          =  -1.2347865027729E-13
(PID.TID 0000.0001) // =======================================================
(PID.TID 0000.0001) // End MONITOR dynamic field statistics
(PID.TID 0000.0001) // =======================================================
 cg2d: Sum(rhs),rhsMax =  -7.01660951563099E-14  5.18234653285494E-03
(PID.TID 0000.0001)      cg2d_init_res =   7.53418008667755E-02
(PID.TID 0000.0001)      cg2d_iters(min,last) =      -1      86
(PID.TID 0000.0001)      cg2d_last_res =   6.43991214621091E-12
(PID.TID 0000.0001) // =======================================================
(PID.TID 0000.0001) // Begin MONITOR dynamic field statistics
(PID.TID 0000.0001) // =======================================================
(PID.TID 0000.0001) %MON time_tsnumber                =                    39
(PID.TID 0000.0001) %MON time_secondsf                =   4.6800000000000E+04
(PID.TID 0000.0001) %MON dynstat_eta_max              =   4.9504999992940E-04
(PID.TID 0000.0001) %MON dynstat_eta_min              =  -4.7025820617775E-04
(PID.TID 0000.0001) %MON dynstat_eta_mean             =   7.7094882726669E-17
(PID.TID 0000.0001) %MON dynstat_eta_sd               =   3.5987459022716E-04
(PID.TID 0000.0001) %MON dynstat_eta_del2             =   2.3114568003206E-06
(PID.TID 0000.0001) %MON dynstat_uvel_max             =   5.4355919751909E-02
(PID.TID 0000.0001) %MON dynstat_uvel_min             =  -4.6622396642887E-02
(PID.TID 0000.0001) %MON dynstat_uvel_mean            =  -7.5672900435124E-06
(PID.TID 0000.0001) %MON dynstat_uvel_sd              =   5.9230987404981E-03
(PID.TID 0000.0001) %MON dynstat_uvel_del2            =   3.8372347168975E-05
(PID.TID 0000.0001) %MON dynstat_vvel_max             =   5.3417960044113E-02
(PID.TID 0000.0001) %MON dynstat_vvel_min             =  -5.3151132539992E-02
(PID.TID 0000.0001) %MON dynstat_vvel_mean            =   9.4659968817141E-10
(PID.TID 0000.0001) %MON dynstat_vvel_sd              =   9.5207050157288E-03
(PID.TID 0000.0001) %MON dynstat_vvel_del2            =   8.8783065918196E-05
(PID.TID 0000.0001) %MON dynstat_wvel_max             =   1.5287332295060E-03
(PID.TID 0000.0001) %MON dynstat_wvel_min             =  -1.2703645346878E-03
(PID.TID 0000.0001) %MON dynstat_wvel_mean            =  -1.6740228556379E-20
(PID.TID 0000.0001) %MON dynstat_wvel_sd              =   2.4195017077615E-04
(PID.TID 0000.0001) %MON dynstat_wvel_del2            =   2.7995078152058E-06
(PID.TID 0000.0001) %MON dynstat_theta_max            =   1.7020389422692E+01
(PID.TID 0000.0001) %MON dynstat_theta_min            =   1.6979609688440E+01
(PID.TID 0000.0001) %MON dynstat_theta_mean           =   1.6999999918107E+01
(PID.TID 0000.0001) %MON dynstat_theta_sd             =   1.8290227102477E-02
(PID.TID 0000.0001) %MON dynstat_theta_del2           =   1.7548776415191E-05
(PID.TID 0000.0001) %MON dynstat_salt_max             =   1.7020387100725E+01
(PID.TID 0000.0001) %MON dynstat_salt_min             =   1.6979612985765E+01
(PID.TID 0000.0001) %MON dynstat_salt_mean            =   1.7000000006192E+01
(PID.TID 0000.0001) %MON dynstat_salt_sd              =   1.7213228094224E-02
(PID.TID 0000.0001) %MON dynstat_salt_del2            =   2.2650900510213E-05
(PID.TID 0000.0001) %MON advcfl_uvel_max              =   6.5227103702290E-02
(PID.TID 0000.0001) %MON advcfl_vvel_max              =   6.4101552052936E-02
(PID.TID 0000.0001) %MON advcfl_wvel_max              =   3.6689597508143E-01
(PID.TID 0000.0001) %MON advcfl_W_hf_max              =   3.6689597508143E-01
(PID.TID 0000.0001) %MON pe_b_mean                    =   3.1762258999508E-09
(PID.TID 0000.0001) %MON ke_max                       =   1.4913844353436E-03
(PID.TID 0000.0001) %MON ke_mean                      =   6.1050613495116E-05
(PID.TID 0000.0001) %MON ke_vol                       =   2.5000000000000E+11
(PID.TID 0000.0001) %MON vort_r_min                   =  -6.8531097081070E-05
(PID.TID 0000.0001) %MON vort_r_max                   =   8.6509357837685E-05
(PID.TID 0000.0001) %MON vort_a_mean                  =   7.2900000000000E-05
(PID.TID 0000.0001) %MON vort_a_sd                    =   1.3811531775880E-05
(PID.TID 0000.0001) %MON vort_p_mean                  =   7.7363265306123E-05
(PID.TID 0000.0001) %MON vort_p_sd                    =   3.4085559535469E-05
(PID.TID 0000.0001) %MON surfExpan_theta_mean         =  -1.2603535316140E-13
(PID.TID 0000.0001) %MON surfExpan_salt_mean          =   9.8347388925912E-14
(PID.TID 0000.0001) // =======================================================
(PID.TID 0000.0001) // End MONITOR dynamic field statistics
(PID.TID 0000.0001) // =======================================================
 cg2d: Sum(rhs),rhsMax =  -6.12843109593086E-14  5.16436167736206E-03
(PID.TID 0000.0001)      cg2d_init_res =   7.59247041366468E-02
(PID.TID 0000.0001)      cg2d_iters(min,last) =      -1      86
(PID.TID 0000.0001)      cg2d_last_res =   6.56385245884523E-12
(PID.TID 0000.0001) // =======================================================
(PID.TID 0000.0001) // Begin MONITOR dynamic field statistics
(PID.TID 0000.0001) // =======================================================
(PID.TID 0000.0001) %MON time_tsnumber                =                    40
(PID.TID 0000.0001) %MON time_secondsf                =   4.8000000000000E+04
(PID.TID 0000.0001) %MON dynstat_eta_max              =   4.9564510466233E-04
(PID.TID 0000.0001) %MON dynstat_eta_min              =  -4.6995902204855E-04
(PID.TID 0000.0001) %MON dynstat_eta_mean             =   6.3227489590645E-17
(PID.TID 0000.0001) %MON dynstat_eta_sd               =   3.5980466250524E-04
(PID.TID 0000.0001) %MON dynstat_eta_del2             =   2.3086105642730E-06
(PID.TID 0000.0001) %MON dynstat_uvel_max             =   5.4377801695035E-02
(PID.TID 0000.0001) %MON dynstat_uvel_min             =  -4.6589438712730E-02
(PID.TID 0000.0001) %MON dynstat_uvel_mean            =  -7.5689720285541E-06
(PID.TID 0000.0001) %MON dynstat_uvel_sd              =   5.8813438808189E-03
(PID.TID 0000.0001) %MON dynstat_uvel_del2            =   3.8195375040288E-05
(PID.TID 0000.0001) %MON dynstat_vvel_max             =   5.2629200152174E-02
(PID.TID 0000.0001) %MON dynstat_vvel_min             =  -5.2539932637526E-02
(PID.TID 0000.0001) %MON dynstat_vvel_mean            =   1.5403514287202E-09
(PID.TID 0000.0001) %MON dynstat_vvel_sd              =   9.5567183632689E-03
(PID.TID 0000.0001) %MON dynstat_vvel_del2            =   8.8570118449563E-05
(PID.TID 0000.0001) %MON dynstat_wvel_max             =   1.5160628572064E-03
(PID.TID 0000.0001) %MON dynstat_wvel_min             =  -1.2538628579836E-03
(PID.TID 0000.0001) %MON dynstat_wvel_mean            =  -1.0845781881598E-20
(PID.TID 0000.0001) %MON dynstat_wvel_sd              =   2.4231493934017E-04
(PID.TID 0000.0001) %MON dynstat_wvel_del2            =   2.7918054635255E-06
(PID.TID 0000.0001) %MON dynstat_theta_max            =   1.7020389419107E+01
(PID.TID 0000.0001) %MON dynstat_theta_min            =   1.6979609690026E+01
(PID.TID 0000.0001) %MON dynstat_theta_mean           =   1.6999999918110E+01
(PID.TID 0000.0001) %MON dynstat_theta_sd             =   1.8289102165082E-02
(PID.TID 0000.0001) %MON dynstat_theta_del2           =   1.7597285073016E-05
(PID.TID 0000.0001) %MON dynstat_salt_max             =   1.7020387100725E+01
(PID.TID 0000.0001) %MON dynstat_salt_min             =   1.6979612985765E+01
(PID.TID 0000.0001) %MON dynstat_salt_mean            =   1.7000000006192E+01
(PID.TID 0000.0001) %MON dynstat_salt_sd              =   1.7211627963029E-02
(PID.TID 0000.0001) %MON dynstat_salt_del2            =   2.2655637106260E-05
(PID.TID 0000.0001) %MON advcfl_uvel_max              =   6.5253362034042E-02
(PID.TID 0000.0001) %MON advcfl_vvel_max              =   6.3155040182609E-02
(PID.TID 0000.0001) %MON advcfl_wvel_max              =   3.6385508572955E-01
(PID.TID 0000.0001) %MON advcfl_W_hf_max              =   3.6385508572955E-01
(PID.TID 0000.0001) %MON pe_b_mean                    =   3.1749916663115E-09
(PID.TID 0000.0001) %MON ke_max                       =   1.4713973810622E-03
(PID.TID 0000.0001) %MON ke_mean                      =   6.1133947186816E-05
(PID.TID 0000.0001) %MON ke_vol                       =   2.5000000000000E+11
(PID.TID 0000.0001) %MON vort_r_min                   =  -6.8764523712231E-05
(PID.TID 0000.0001) %MON vort_r_max                   =   8.5956506586750E-05
(PID.TID 0000.0001) %MON vort_a_mean                  =   7.2900000000000E-05
(PID.TID 0000.0001) %MON vort_a_sd                    =   1.3774404751826E-05
(PID.TID 0000.0001) %MON vort_p_mean                  =   7.7363265306123E-05
(PID.TID 0000.0001) %MON vort_p_sd                    =   3.4058288312545E-05
(PID.TID 0000.0001) %MON surfExpan_theta_mean         =  -4.5696202516288E-13
(PID.TID 0000.0001) %MON surfExpan_salt_mean          =   8.8257145243364E-14
(PID.TID 0000.0001) // =======================================================
(PID.TID 0000.0001) // End MONITOR dynamic field statistics
(PID.TID 0000.0001) // =======================================================
 cg2d: Sum(rhs),rhsMax =  -5.15143483426073E-14  5.14340946071062E-03
(PID.TID 0000.0001)      cg2d_init_res =   7.59154614556123E-02
(PID.TID 0000.0001)      cg2d_iters(min,last) =      -1      86
(PID.TID 0000.0001)      cg2d_last_res =   7.08164908780827E-12
(PID.TID 0000.0001) // =======================================================
(PID.TID 0000.0001) // Begin MONITOR dynamic field statistics
(PID.TID 0000.0001) // =======================================================
(PID.TID 0000.0001) %MON time_tsnumber                =                    41
(PID.TID 0000.0001) %MON time_secondsf                =   4.9200000000000E+04
(PID.TID 0000.0001) %MON dynstat_eta_max              =   4.9619665532989E-04
(PID.TID 0000.0001) %MON dynstat_eta_min              =  -4.6999956913669E-04
(PID.TID 0000.0001) %MON dynstat_eta_mean             =   6.1243772506714E-17
(PID.TID 0000.0001) %MON dynstat_eta_sd               =   3.5973228702884E-04
(PID.TID 0000.0001) %MON dynstat_eta_del2             =   2.3061487768169E-06
(PID.TID 0000.0001) %MON dynstat_uvel_max             =   5.4468128205941E-02
(PID.TID 0000.0001) %MON dynstat_uvel_min             =  -4.6625416884344E-02
(PID.TID 0000.0001) %MON dynstat_uvel_mean            =  -7.5706466982409E-06
(PID.TID 0000.0001) %MON dynstat_uvel_sd              =   5.8518141952736E-03
(PID.TID 0000.0001) %MON dynstat_uvel_del2            =   3.8033991624906E-05
(PID.TID 0000.0001) %MON dynstat_vvel_max             =   5.2071980036508E-02
(PID.TID 0000.0001) %MON dynstat_vvel_min             =  -5.3345872345473E-02
(PID.TID 0000.0001) %MON dynstat_vvel_mean            =   1.5836367444601E-09
(PID.TID 0000.0001) %MON dynstat_vvel_sd              =   9.5925784973259E-03
(PID.TID 0000.0001) %MON dynstat_vvel_del2            =   8.8342011261366E-05
(PID.TID 0000.0001) %MON dynstat_wvel_max             =   1.5035608313895E-03
(PID.TID 0000.0001) %MON dynstat_wvel_min             =  -1.2387484175053E-03
(PID.TID 0000.0001) %MON dynstat_wvel_mean            =   9.4311146796504E-21
(PID.TID 0000.0001) %MON dynstat_wvel_sd              =   2.4280383587697E-04
(PID.TID 0000.0001) %MON dynstat_wvel_del2            =   2.7862282274558E-06
(PID.TID 0000.0001) %MON dynstat_theta_max            =   1.7020389415215E+01
(PID.TID 0000.0001) %MON dynstat_theta_min            =   1.6979609691411E+01
(PID.TID 0000.0001) %MON dynstat_theta_mean           =   1.6999999918112E+01
(PID.TID 0000.0001) %MON dynstat_theta_sd             =   1.8287971301583E-02
(PID.TID 0000.0001) %MON dynstat_theta_del2           =   1.7648076319576E-05
(PID.TID 0000.0001) %MON dynstat_salt_max             =   1.7020387100725E+01
(PID.TID 0000.0001) %MON dynstat_salt_min             =   1.6979612985765E+01
(PID.TID 0000.0001) %MON dynstat_salt_mean            =   1.7000000006191E+01
(PID.TID 0000.0001) %MON dynstat_salt_sd              =   1.7210018504556E-02
(PID.TID 0000.0001) %MON dynstat_salt_del2            =   2.2658056045099E-05
(PID.TID 0000.0001) %MON advcfl_uvel_max              =   6.5361753847130E-02
(PID.TID 0000.0001) %MON advcfl_vvel_max              =   6.4015046814568E-02
(PID.TID 0000.0001) %MON advcfl_wvel_max              =   3.6085459953347E-01
(PID.TID 0000.0001) %MON advcfl_W_hf_max              =   3.6085459953347E-01
(PID.TID 0000.0001) %MON pe_b_mean                    =   3.1737144820677E-09
(PID.TID 0000.0001) %MON ke_max                       =   1.4601306178321E-03
(PID.TID 0000.0001) %MON ke_mean                      =   6.1290323214482E-05
(PID.TID 0000.0001) %MON ke_vol                       =   2.5000000000000E+11
(PID.TID 0000.0001) %MON vort_r_min                   =  -6.8971325697738E-05
(PID.TID 0000.0001) %MON vort_r_max                   =   8.5410945811724E-05
(PID.TID 0000.0001) %MON vort_a_mean                  =   7.2900000000000E-05
(PID.TID 0000.0001) %MON vort_a_sd                    =   1.3735312354031E-05
(PID.TID 0000.0001) %MON vort_p_mean                  =   7.7363265306123E-05
(PID.TID 0000.0001) %MON vort_p_sd                    =   3.4028982374946E-05
(PID.TID 0000.0001) %MON surfExpan_theta_mean         =  -4.0067973024129E-13
(PID.TID 0000.0001) %MON surfExpan_salt_mean          =   6.6250631797882E-14
(PID.TID 0000.0001) // =======================================================
(PID.TID 0000.0001) // End MONITOR dynamic field statistics
(PID.TID 0000.0001) // =======================================================
 cg2d: Sum(rhs),rhsMax =  -4.26325641456060E-14  5.11998844307606E-03
(PID.TID 0000.0001)      cg2d_init_res =   7.57808085225109E-02
(PID.TID 0000.0001)      cg2d_iters(min,last) =      -1      86
(PID.TID 0000.0001)      cg2d_last_res =   7.57968308433547E-12
(PID.TID 0000.0001) // =======================================================
(PID.TID 0000.0001) // Begin MONITOR dynamic field statistics
(PID.TID 0000.0001) // =======================================================
(PID.TID 0000.0001) %MON time_tsnumber                =                    42
(PID.TID 0000.0001) %MON time_secondsf                =   5.0400000000000E+04
(PID.TID 0000.0001) %MON dynstat_eta_max              =   4.9669870116310E-04
(PID.TID 0000.0001) %MON dynstat_eta_min              =  -4.7003807135529E-04
(PID.TID 0000.0001) %MON dynstat_eta_mean             =   6.1644241213799E-17
(PID.TID 0000.0001) %MON dynstat_eta_sd               =   3.5965636860039E-04
(PID.TID 0000.0001) %MON dynstat_eta_del2             =   2.3041252795214E-06
(PID.TID 0000.0001) %MON dynstat_uvel_max             =   5.4626059510389E-02
(PID.TID 0000.0001) %MON dynstat_uvel_min             =  -4.6729050012215E-02
(PID.TID 0000.0001) %MON dynstat_uvel_mean            =  -7.5722550253733E-06
(PID.TID 0000.0001) %MON dynstat_uvel_sd              =   5.8366441380086E-03
(PID.TID 0000.0001) %MON dynstat_uvel_del2            =   3.7889904707117E-05
(PID.TID 0000.0001) %MON dynstat_vvel_max             =   5.1511129069671E-02
(PID.TID 0000.0001) %MON dynstat_vvel_min             =  -5.4510888760325E-02
(PID.TID 0000.0001) %MON dynstat_vvel_mean            =   1.6660186084375E-09
(PID.TID 0000.0001) %MON dynstat_vvel_sd              =   9.6269120688801E-03
(PID.TID 0000.0001) %MON dynstat_vvel_del2            =   8.8098711632842E-05
(PID.TID 0000.0001) %MON dynstat_wvel_max             =   1.4911921487705E-03
(PID.TID 0000.0001) %MON dynstat_wvel_min             =  -1.2247803962587E-03
(PID.TID 0000.0001) %MON dynstat_wvel_mean            =  -2.4520898167091E-20
(PID.TID 0000.0001) %MON dynstat_wvel_sd              =   2.4335919627323E-04
(PID.TID 0000.0001) %MON dynstat_wvel_del2            =   2.7826441074480E-06
(PID.TID 0000.0001) %MON dynstat_theta_max            =   1.7020389411042E+01
(PID.TID 0000.0001) %MON dynstat_theta_min            =   1.6979609693042E+01
(PID.TID 0000.0001) %MON dynstat_theta_mean           =   1.6999999918115E+01
(PID.TID 0000.0001) %MON dynstat_theta_sd             =   1.8286831389717E-02
(PID.TID 0000.0001) %MON dynstat_theta_del2           =   1.7700656017525E-05
(PID.TID 0000.0001) %MON dynstat_salt_max             =   1.7020387100725E+01
(PID.TID 0000.0001) %MON dynstat_salt_min             =   1.6979612985765E+01
(PID.TID 0000.0001) %MON dynstat_salt_mean            =   1.7000000006191E+01
(PID.TID 0000.0001) %MON dynstat_salt_sd              =   1.7208417607995E-02
(PID.TID 0000.0001) %MON dynstat_salt_del2            =   2.2661111561729E-05
(PID.TID 0000.0001) %MON advcfl_uvel_max              =   6.5551271412467E-02
(PID.TID 0000.0001) %MON advcfl_vvel_max              =   6.5413066512389E-02
(PID.TID 0000.0001) %MON advcfl_wvel_max              =   3.5788611570493E-01
(PID.TID 0000.0001) %MON advcfl_W_hf_max              =   3.5788611570493E-01
(PID.TID 0000.0001) %MON pe_b_mean                    =   3.1723750527199E-09
(PID.TID 0000.0001) %MON ke_max                       =   1.4545986604849E-03
(PID.TID 0000.0001) %MON ke_mean                      =   6.1518405337735E-05
(PID.TID 0000.0001) %MON ke_vol                       =   2.5000000000000E+11
(PID.TID 0000.0001) %MON vort_r_min                   =  -6.9151822043482E-05
(PID.TID 0000.0001) %MON vort_r_max                   =   8.4876741300070E-05
(PID.TID 0000.0001) %MON vort_a_mean                  =   7.2900000000000E-05
(PID.TID 0000.0001) %MON vort_a_sd                    =   1.3694687417044E-05
(PID.TID 0000.0001) %MON vort_p_mean                  =   7.7363265306122E-05
(PID.TID 0000.0001) %MON vort_p_sd                    =   3.3998205305479E-05
(PID.TID 0000.0001) %MON surfExpan_theta_mean         =  -3.8695748851643E-13
(PID.TID 0000.0001) %MON surfExpan_salt_mean          =   3.8774271518616E-14
(PID.TID 0000.0001) // =======================================================
(PID.TID 0000.0001) // End MONITOR dynamic field statistics
(PID.TID 0000.0001) // =======================================================
 cg2d: Sum(rhs),rhsMax =  -5.59552404411079E-14  5.09454888005041E-03
(PID.TID 0000.0001)      cg2d_init_res =   7.57441805123610E-02
(PID.TID 0000.0001)      cg2d_iters(min,last) =      -1      86
(PID.TID 0000.0001)      cg2d_last_res =   8.36524145731871E-12
(PID.TID 0000.0001) // =======================================================
(PID.TID 0000.0001) // Begin MONITOR dynamic field statistics
(PID.TID 0000.0001) // =======================================================
(PID.TID 0000.0001) %MON time_tsnumber                =                    43
(PID.TID 0000.0001) %MON time_secondsf                =   5.1600000000000E+04
(PID.TID 0000.0001) %MON dynstat_eta_max              =   4.9714923370461E-04
(PID.TID 0000.0001) %MON dynstat_eta_min              =  -4.7001823022911E-04
(PID.TID 0000.0001) %MON dynstat_eta_mean             =   5.3588300943375E-17
(PID.TID 0000.0001) %MON dynstat_eta_sd               =   3.5957670004041E-04
(PID.TID 0000.0001) %MON dynstat_eta_del2             =   2.3025498004921E-06
(PID.TID 0000.0001) %MON dynstat_uvel_max             =   5.4850407725231E-02
(PID.TID 0000.0001) %MON dynstat_uvel_min             =  -4.6898586102155E-02
(PID.TID 0000.0001) %MON dynstat_uvel_mean            =  -7.5737571066089E-06
(PID.TID 0000.0001) %MON dynstat_uvel_sd              =   5.8378100971488E-03
(PID.TID 0000.0001) %MON dynstat_uvel_del2            =   3.7764506001485E-05
(PID.TID 0000.0001) %MON dynstat_vvel_max             =   5.0985970438688E-02
(PID.TID 0000.0001) %MON dynstat_vvel_min             =  -5.5573501810361E-02
(PID.TID 0000.0001) %MON dynstat_vvel_mean            =   1.7592957283370E-09
(PID.TID 0000.0001) %MON dynstat_vvel_sd              =   9.6583673577902E-03
(PID.TID 0000.0001) %MON dynstat_vvel_del2            =   8.7840419424334E-05
(PID.TID 0000.0001) %MON dynstat_wvel_max             =   1.4789192988859E-03
(PID.TID 0000.0001) %MON dynstat_wvel_min             =  -1.2117702867390E-03
(PID.TID 0000.0001) %MON dynstat_wvel_mean            =   6.6017802757553E-21
(PID.TID 0000.0001) %MON dynstat_wvel_sd              =   2.4392515672488E-04
(PID.TID 0000.0001) %MON dynstat_wvel_del2            =   2.7809062966383E-06
(PID.TID 0000.0001) %MON dynstat_theta_max            =   1.7020389406609E+01
(PID.TID 0000.0001) %MON dynstat_theta_min            =   1.6979609694485E+01
(PID.TID 0000.0001) %MON dynstat_theta_mean           =   1.6999999918117E+01
(PID.TID 0000.0001) %MON dynstat_theta_sd             =   1.8285682669626E-02
(PID.TID 0000.0001) %MON dynstat_theta_del2           =   1.7754563209866E-05
(PID.TID 0000.0001) %MON dynstat_salt_max             =   1.7020387100725E+01
(PID.TID 0000.0001) %MON dynstat_salt_min             =   1.6979612985765E+01
(PID.TID 0000.0001) %MON dynstat_salt_mean            =   1.7000000006191E+01
(PID.TID 0000.0001) %MON dynstat_salt_sd              =   1.7206848863450E-02
(PID.TID 0000.0001) %MON dynstat_salt_del2            =   2.2665604982012E-05
(PID.TID 0000.0001) %MON advcfl_uvel_max              =   6.5820489270277E-02
(PID.TID 0000.0001) %MON advcfl_vvel_max              =   6.6688202172433E-02
(PID.TID 0000.0001) %MON advcfl_wvel_max              =   3.5494063173261E-01
(PID.TID 0000.0001) %MON advcfl_W_hf_max              =   3.5494063173261E-01
(PID.TID 0000.0001) %MON pe_b_mean                    =   3.1709697637731E-09
(PID.TID 0000.0001) %MON ke_max                       =   1.5198455616202E-03
(PID.TID 0000.0001) %MON ke_mean                      =   6.1816390854739E-05
(PID.TID 0000.0001) %MON ke_vol                       =   2.5000000000000E+11
(PID.TID 0000.0001) %MON vort_r_min                   =  -6.9306553795646E-05
(PID.TID 0000.0001) %MON vort_r_max                   =   8.4357898998612E-05
(PID.TID 0000.0001) %MON vort_a_mean                  =   7.2900000000000E-05
(PID.TID 0000.0001) %MON vort_a_sd                    =   1.3652974669644E-05
(PID.TID 0000.0001) %MON vort_p_mean                  =   7.7363265306122E-05
(PID.TID 0000.0001) %MON vort_p_sd                    =   3.3966547389527E-05
(PID.TID 0000.0001) %MON surfExpan_theta_mean         =  -3.7986407026489E-13
(PID.TID 0000.0001) %MON surfExpan_salt_mean          =   1.0188326610105E-14
(PID.TID 0000.0001) // =======================================================
(PID.TID 0000.0001) // End MONITOR dynamic field statistics
(PID.TID 0000.0001) // =======================================================
 cg2d: Sum(rhs),rhsMax =  -4.08562073062058E-14  5.06751639269002E-03
(PID.TID 0000.0001)      cg2d_init_res =   7.55794222320110E-02
(PID.TID 0000.0001)      cg2d_iters(min,last) =      -1      86
(PID.TID 0000.0001)      cg2d_last_res =   8.82442762880941E-12
(PID.TID 0000.0001) // =======================================================
(PID.TID 0000.0001) // Begin MONITOR dynamic field statistics
(PID.TID 0000.0001) // =======================================================
(PID.TID 0000.0001) %MON time_tsnumber                =                    44
(PID.TID 0000.0001) %MON time_secondsf                =   5.2800000000000E+04
(PID.TID 0000.0001) %MON dynstat_eta_max              =   4.9754757072280E-04
(PID.TID 0000.0001) %MON dynstat_eta_min              =  -4.7000828375756E-04
(PID.TID 0000.0001) %MON dynstat_eta_mean             =   5.1213428378105E-17
(PID.TID 0000.0001) %MON dynstat_eta_sd               =   3.5949360482568E-04
(PID.TID 0000.0001) %MON dynstat_eta_del2             =   2.3014690849434E-06
(PID.TID 0000.0001) %MON dynstat_uvel_max             =   5.5139249552732E-02
(PID.TID 0000.0001) %MON dynstat_uvel_min             =  -4.7131851233129E-02
(PID.TID 0000.0001) %MON dynstat_uvel_mean            =  -7.5751412712020E-06
(PID.TID 0000.0001) %MON dynstat_uvel_sd              =   5.8570088748996E-03
(PID.TID 0000.0001) %MON dynstat_uvel_del2            =   3.7658837621383E-05
(PID.TID 0000.0001) %MON dynstat_vvel_max             =   5.1879654048190E-02
(PID.TID 0000.0001) %MON dynstat_vvel_min             =  -5.6524886112548E-02
(PID.TID 0000.0001) %MON dynstat_vvel_mean            =   1.8493330710490E-09
(PID.TID 0000.0001) %MON dynstat_vvel_sd              =   9.6856524978616E-03
(PID.TID 0000.0001) %MON dynstat_vvel_del2            =   8.7567557831558E-05
(PID.TID 0000.0001) %MON dynstat_wvel_max             =   1.4667067679238E-03
(PID.TID 0000.0001) %MON dynstat_wvel_min             =  -1.1996567487454E-03
(PID.TID 0000.0001) %MON dynstat_wvel_mean            =  -9.4311146796504E-21
(PID.TID 0000.0001) %MON dynstat_wvel_sd              =   2.4444916440274E-04
(PID.TID 0000.0001) %MON dynstat_wvel_del2            =   2.7808543488569E-06
(PID.TID 0000.0001) %MON dynstat_theta_max            =   1.7020389401938E+01
(PID.TID 0000.0001) %MON dynstat_theta_min            =   1.6979609695886E+01
(PID.TID 0000.0001) %MON dynstat_theta_mean           =   1.6999999918119E+01
(PID.TID 0000.0001) %MON dynstat_theta_sd             =   1.8284525112026E-02
(PID.TID 0000.0001) %MON dynstat_theta_del2           =   1.7809421320141E-05
(PID.TID 0000.0001) %MON dynstat_salt_max             =   1.7020387100725E+01
(PID.TID 0000.0001) %MON dynstat_salt_min             =   1.6979612985765E+01
(PID.TID 0000.0001) %MON dynstat_salt_mean            =   1.7000000006191E+01
(PID.TID 0000.0001) %MON dynstat_salt_sd              =   1.7205272980615E-02
(PID.TID 0000.0001) %MON dynstat_salt_del2            =   2.2668701433141E-05
(PID.TID 0000.0001) %MON advcfl_uvel_max              =   6.6167099463278E-02
(PID.TID 0000.0001) %MON advcfl_vvel_max              =   6.7829863335057E-02
(PID.TID 0000.0001) %MON advcfl_wvel_max              =   3.5200962430171E-01
(PID.TID 0000.0001) %MON advcfl_W_hf_max              =   3.5200962430171E-01
(PID.TID 0000.0001) %MON pe_b_mean                    =   3.1695043631065E-09
(PID.TID 0000.0001) %MON ke_max                       =   1.5817341183594E-03
(PID.TID 0000.0001) %MON ke_mean                      =   6.2182000040191E-05
(PID.TID 0000.0001) %MON ke_vol                       =   2.5000000000000E+11
(PID.TID 0000.0001) %MON vort_r_min                   =  -6.9436264560402E-05
(PID.TID 0000.0001) %MON vort_r_max                   =   8.3858349561120E-05
(PID.TID 0000.0001) %MON vort_a_mean                  =   7.2900000000000E-05
(PID.TID 0000.0001) %MON vort_a_sd                    =   1.3610621074873E-05
(PID.TID 0000.0001) %MON vort_p_mean                  =   7.7363265306122E-05
(PID.TID 0000.0001) %MON vort_p_sd                    =   3.3934611226192E-05
(PID.TID 0000.0001) %MON surfExpan_theta_mean         =  -3.6947962601008E-13
(PID.TID 0000.0001) %MON surfExpan_salt_mean          =  -2.1939093694545E-14
(PID.TID 0000.0001) // =======================================================
(PID.TID 0000.0001) // End MONITOR dynamic field statistics
(PID.TID 0000.0001) // =======================================================
 cg2d: Sum(rhs),rhsMax =  -4.44089209850063E-14  5.03923733651968E-03
(PID.TID 0000.0001)      cg2d_init_res =   7.50964198743218E-02
(PID.TID 0000.0001)      cg2d_iters(min,last) =      -1      86
(PID.TID 0000.0001)      cg2d_last_res =   9.09538706889779E-12
(PID.TID 0000.0001) // =======================================================
(PID.TID 0000.0001) // Begin MONITOR dynamic field statistics
(PID.TID 0000.0001) // =======================================================
(PID.TID 0000.0001) %MON time_tsnumber                =                    45
(PID.TID 0000.0001) %MON time_secondsf                =   5.4000000000000E+04
(PID.TID 0000.0001) %MON dynstat_eta_max              =   4.9789374757823E-04
(PID.TID 0000.0001) %MON dynstat_eta_min              =  -4.7001164678653E-04
(PID.TID 0000.0001) %MON dynstat_eta_mean             =   4.9667432904243E-17
(PID.TID 0000.0001) %MON dynstat_eta_sd               =   3.5940736157647E-04
(PID.TID 0000.0001) %MON dynstat_eta_del2             =   2.3008764504459E-06
(PID.TID 0000.0001) %MON dynstat_uvel_max             =   5.5490281394155E-02
(PID.TID 0000.0001) %MON dynstat_uvel_min             =  -4.7426236888795E-02
(PID.TID 0000.0001) %MON dynstat_uvel_mean            =  -7.5763951061806E-06
(PID.TID 0000.0001) %MON dynstat_uvel_sd              =   5.8955425207683E-03
(PID.TID 0000.0001) %MON dynstat_uvel_del2            =   3.7573556324486E-05
(PID.TID 0000.0001) %MON dynstat_vvel_max             =   5.2676495131647E-02
(PID.TID 0000.0001) %MON dynstat_vvel_min             =  -5.7357404589169E-02
(PID.TID 0000.0001) %MON dynstat_vvel_mean            =   1.9350182411804E-09
(PID.TID 0000.0001) %MON dynstat_vvel_sd              =   9.7075723970190E-03
(PID.TID 0000.0001) %MON dynstat_vvel_del2            =   8.7280783148061E-05
(PID.TID 0000.0001) %MON dynstat_wvel_max             =   1.4545204227023E-03
(PID.TID 0000.0001) %MON dynstat_wvel_min             =  -1.1884153574513E-03
(PID.TID 0000.0001) %MON dynstat_wvel_mean            =  -9.4311146796504E-22
(PID.TID 0000.0001) %MON dynstat_wvel_sd              =   2.4488365203811E-04
(PID.TID 0000.0001) %MON dynstat_wvel_del2            =   2.7823143048175E-06
(PID.TID 0000.0001) %MON dynstat_theta_max            =   1.7020389397048E+01
(PID.TID 0000.0001) %MON dynstat_theta_min            =   1.6979609695886E+01
(PID.TID 0000.0001) %MON dynstat_theta_mean           =   1.6999999918122E+01
(PID.TID 0000.0001) %MON dynstat_theta_sd             =   1.8283354838440E-02
(PID.TID 0000.0001) %MON dynstat_theta_del2           =   1.7864709647908E-05
(PID.TID 0000.0001) %MON dynstat_salt_max             =   1.7020387100725E+01
(PID.TID 0000.0001) %MON dynstat_salt_min             =   1.6979612985765E+01
(PID.TID 0000.0001) %MON dynstat_salt_mean            =   1.7000000006192E+01
(PID.TID 0000.0001) %MON dynstat_salt_sd              =   1.7203685456359E-02
(PID.TID 0000.0001) %MON dynstat_salt_del2            =   2.2669656477063E-05
(PID.TID 0000.0001) %MON advcfl_uvel_max              =   6.6588337672987E-02
(PID.TID 0000.0001) %MON advcfl_vvel_max              =   6.8828885507002E-02
(PID.TID 0000.0001) %MON advcfl_wvel_max              =   3.4908490144855E-01
(PID.TID 0000.0001) %MON advcfl_W_hf_max              =   3.4908490144855E-01
(PID.TID 0000.0001) %MON pe_b_mean                    =   3.1679838043953E-09
(PID.TID 0000.0001) %MON ke_max                       =   1.6395823204010E-03
(PID.TID 0000.0001) %MON ke_mean                      =   6.2612481192792E-05
(PID.TID 0000.0001) %MON ke_vol                       =   2.5000000000000E+11
(PID.TID 0000.0001) %MON vort_r_min                   =  -6.9541888164203E-05
(PID.TID 0000.0001) %MON vort_r_max                   =   8.3381888990323E-05
(PID.TID 0000.0001) %MON vort_a_mean                  =   7.2900000000000E-05
(PID.TID 0000.0001) %MON vort_a_sd                    =   1.3568066486638E-05
(PID.TID 0000.0001) %MON vort_p_mean                  =   7.7363265306123E-05
(PID.TID 0000.0001) %MON vort_p_sd                    =   3.3902997133291E-05
(PID.TID 0000.0001) %MON surfExpan_theta_mean         =  -3.5546767959245E-13
(PID.TID 0000.0001) %MON surfExpan_salt_mean          =  -5.7149049878458E-14
(PID.TID 0000.0001) // =======================================================
(PID.TID 0000.0001) // End MONITOR dynamic field statistics
(PID.TID 0000.0001) // =======================================================
 cg2d: Sum(rhs),rhsMax =  -4.35207425653061E-14  5.01009601814302E-03
(PID.TID 0000.0001)      cg2d_init_res =   7.46795684036007E-02
(PID.TID 0000.0001)      cg2d_iters(min,last) =      -1      86
(PID.TID 0000.0001)      cg2d_last_res =   9.61705929836517E-12
(PID.TID 0000.0001) // =======================================================
(PID.TID 0000.0001) // Begin MONITOR dynamic field statistics
(PID.TID 0000.0001) // =======================================================
(PID.TID 0000.0001) %MON time_tsnumber                =                    46
(PID.TID 0000.0001) %MON time_secondsf                =   5.5200000000000E+04
(PID.TID 0000.0001) %MON dynstat_eta_max              =   4.9819217486933E-04
(PID.TID 0000.0001) %MON dynstat_eta_min              =  -4.7002156005703E-04
(PID.TID 0000.0001) %MON dynstat_eta_mean             =   6.5518543124199E-17
(PID.TID 0000.0001) %MON dynstat_eta_sd               =   3.5931828282579E-04
(PID.TID 0000.0001) %MON dynstat_eta_del2             =   2.3007713324805E-06
(PID.TID 0000.0001) %MON dynstat_uvel_max             =   5.5900704432585E-02
(PID.TID 0000.0001) %MON dynstat_uvel_min             =  -4.7778715501745E-02
(PID.TID 0000.0001) %MON dynstat_uvel_mean            =  -7.5775039033977E-06
(PID.TID 0000.0001) %MON dynstat_uvel_sd              =   5.9542234897175E-03
(PID.TID 0000.0001) %MON dynstat_uvel_del2            =   3.7508923129569E-05
(PID.TID 0000.0001) %MON dynstat_vvel_max             =   5.3369808115393E-02
(PID.TID 0000.0001) %MON dynstat_vvel_min             =  -5.8064642646635E-02
(PID.TID 0000.0001) %MON dynstat_vvel_mean            =   2.0163827940201E-09
(PID.TID 0000.0001) %MON dynstat_vvel_sd              =   9.7230605460356E-03
(PID.TID 0000.0001) %MON dynstat_vvel_del2            =   8.6980980521642E-05
(PID.TID 0000.0001) %MON dynstat_wvel_max             =   1.4423285681321E-03
(PID.TID 0000.0001) %MON dynstat_wvel_min             =  -1.1784288855242E-03
(PID.TID 0000.0001) %MON dynstat_wvel_mean            =   6.6960914225518E-20
(PID.TID 0000.0001) %MON dynstat_wvel_sd              =   2.4518726599422E-04
(PID.TID 0000.0001) %MON dynstat_wvel_del2            =   2.7851027045592E-06
(PID.TID 0000.0001) %MON dynstat_theta_max            =   1.7020389391960E+01
(PID.TID 0000.0001) %MON dynstat_theta_min            =   1.6979609698383E+01
(PID.TID 0000.0001) %MON dynstat_theta_mean           =   1.6999999918124E+01
(PID.TID 0000.0001) %MON dynstat_theta_sd             =   1.8282169891242E-02
(PID.TID 0000.0001) %MON dynstat_theta_del2           =   1.7920063687460E-05
(PID.TID 0000.0001) %MON dynstat_salt_max             =   1.7020387100725E+01
(PID.TID 0000.0001) %MON dynstat_salt_min             =   1.6979612985765E+01
(PID.TID 0000.0001) %MON dynstat_salt_mean            =   1.7000000006192E+01
(PID.TID 0000.0001) %MON dynstat_salt_sd              =   1.7202088789437E-02
(PID.TID 0000.0001) %MON dynstat_salt_del2            =   2.2670240002898E-05
(PID.TID 0000.0001) %MON advcfl_uvel_max              =   6.7080845319102E-02
(PID.TID 0000.0001) %MON advcfl_vvel_max              =   6.9677571175962E-02
(PID.TID 0000.0001) %MON advcfl_wvel_max              =   3.4615885635171E-01
(PID.TID 0000.0001) %MON advcfl_W_hf_max              =   3.4615885635171E-01
(PID.TID 0000.0001) %MON pe_b_mean                    =   3.1664136358448E-09
(PID.TID 0000.0001) %MON ke_max                       =   1.6927423326477E-03
(PID.TID 0000.0001) %MON ke_mean                      =   6.3104612455336E-05
(PID.TID 0000.0001) %MON ke_vol                       =   2.5000000000000E+11
(PID.TID 0000.0001) %MON vort_r_min                   =  -6.9624551998784E-05
(PID.TID 0000.0001) %MON vort_r_max                   =   8.2932133708242E-05
(PID.TID 0000.0001) %MON vort_a_mean                  =   7.2900000000000E-05
(PID.TID 0000.0001) %MON vort_a_sd                    =   1.3525734772942E-05
(PID.TID 0000.0001) %MON vort_p_mean                  =   7.7363265306122E-05
(PID.TID 0000.0001) %MON vort_p_sd                    =   3.3872288678897E-05
(PID.TID 0000.0001) %MON surfExpan_theta_mean         =  -3.3681047594731E-13
(PID.TID 0000.0001) %MON surfExpan_salt_mean          =  -9.5640561039723E-14
(PID.TID 0000.0001) // =======================================================
(PID.TID 0000.0001) // End MONITOR dynamic field statistics
(PID.TID 0000.0001) // =======================================================
 cg2d: Sum(rhs),rhsMax =  -4.97379915032070E-14  4.98054806030862E-03
(PID.TID 0000.0001)      cg2d_init_res =   7.43046464759592E-02
(PID.TID 0000.0001)      cg2d_iters(min,last) =      -1      87
(PID.TID 0000.0001)      cg2d_last_res =   5.98509910588045E-12
(PID.TID 0000.0001) // =======================================================
(PID.TID 0000.0001) // Begin MONITOR dynamic field statistics
(PID.TID 0000.0001) // =======================================================
(PID.TID 0000.0001) %MON time_tsnumber                =                    47
(PID.TID 0000.0001) %MON time_secondsf                =   5.6400000000000E+04
(PID.TID 0000.0001) %MON dynstat_eta_max              =   4.9844091560419E-04
(PID.TID 0000.0001) %MON dynstat_eta_min              =  -4.7005431190514E-04
(PID.TID 0000.0001) %MON dynstat_eta_mean             =   6.9551169872284E-17
(PID.TID 0000.0001) %MON dynstat_eta_sd               =   3.5922669338792E-04
(PID.TID 0000.0001) %MON dynstat_eta_del2             =   2.3011464488247E-06
(PID.TID 0000.0001) %MON dynstat_uvel_max             =   5.6367194924544E-02
(PID.TID 0000.0001) %MON dynstat_uvel_min             =  -4.8185862387400E-02
(PID.TID 0000.0001) %MON dynstat_uvel_mean            =  -7.5784508344952E-06
(PID.TID 0000.0001) %MON dynstat_uvel_sd              =   6.0333114214375E-03
(PID.TID 0000.0001) %MON dynstat_uvel_del2            =   3.7464843695229E-05
(PID.TID 0000.0001) %MON dynstat_vvel_max             =   5.3953995190353E-02
(PID.TID 0000.0001) %MON dynstat_vvel_min             =  -5.8641588245458E-02
(PID.TID 0000.0001) %MON dynstat_vvel_mean            =   2.0929066315681E-09
(PID.TID 0000.0001) %MON dynstat_vvel_sd              =   9.7312064784193E-03
(PID.TID 0000.0001) %MON dynstat_vvel_del2            =   8.6669251977391E-05
(PID.TID 0000.0001) %MON dynstat_wvel_max             =   1.4302113904873E-03
(PID.TID 0000.0001) %MON dynstat_wvel_min             =  -1.1699112078958E-03
(PID.TID 0000.0001) %MON dynstat_wvel_mean            =  -2.4520898167091E-20
(PID.TID 0000.0001) %MON dynstat_wvel_sd              =   2.4532608082631E-04
(PID.TID 0000.0001) %MON dynstat_wvel_del2            =   2.7890368436721E-06
(PID.TID 0000.0001) %MON dynstat_theta_max            =   1.7020389386691E+01
(PID.TID 0000.0001) %MON dynstat_theta_min            =   1.6979609699571E+01
(PID.TID 0000.0001) %MON dynstat_theta_mean           =   1.6999999918126E+01
(PID.TID 0000.0001) %MON dynstat_theta_sd             =   1.8280968334554E-02
(PID.TID 0000.0001) %MON dynstat_theta_del2           =   1.7975007090574E-05
(PID.TID 0000.0001) %MON dynstat_salt_max             =   1.7020387100725E+01
(PID.TID 0000.0001) %MON dynstat_salt_min             =   1.6979612985765E+01
(PID.TID 0000.0001) %MON dynstat_salt_mean            =   1.7000000006193E+01
(PID.TID 0000.0001) %MON dynstat_salt_sd              =   1.7200479272439E-02
(PID.TID 0000.0001) %MON dynstat_salt_del2            =   2.2669536756429E-05
(PID.TID 0000.0001) %MON advcfl_uvel_max              =   6.7640633909452E-02
(PID.TID 0000.0001) %MON advcfl_vvel_max              =   7.0369905894550E-02
(PID.TID 0000.0001) %MON advcfl_wvel_max              =   3.4325073371694E-01
(PID.TID 0000.0001) %MON advcfl_W_hf_max              =   3.4325073371694E-01
(PID.TID 0000.0001) %MON pe_b_mean                    =   3.1647996178702E-09
(PID.TID 0000.0001) %MON ke_max                       =   1.7406055801392E-03
(PID.TID 0000.0001) %MON ke_mean                      =   6.3654714242787E-05
(PID.TID 0000.0001) %MON ke_vol                       =   2.5000000000000E+11
(PID.TID 0000.0001) %MON vort_r_min                   =  -6.9685531929826E-05
(PID.TID 0000.0001) %MON vort_r_max                   =   8.2512443885048E-05
(PID.TID 0000.0001) %MON vort_a_mean                  =   7.2900000000000E-05
(PID.TID 0000.0001) %MON vort_a_sd                    =   1.3484025456608E-05
(PID.TID 0000.0001) %MON vort_p_mean                  =   7.7363265306122E-05
(PID.TID 0000.0001) %MON vort_p_sd                    =   3.3843038603246E-05
(PID.TID 0000.0001) %MON surfExpan_theta_mean         =  -3.1197438509709E-13
(PID.TID 0000.0001) %MON surfExpan_salt_mean          =  -1.3695788122101E-13
(PID.TID 0000.0001) // =======================================================
(PID.TID 0000.0001) // End MONITOR dynamic field statistics
(PID.TID 0000.0001) // =======================================================
 cg2d: Sum(rhs),rhsMax =  -5.95079541199084E-14  4.95111897102821E-03
(PID.TID 0000.0001)      cg2d_init_res =   7.38163175980968E-02
(PID.TID 0000.0001)      cg2d_iters(min,last) =      -1      87
(PID.TID 0000.0001)      cg2d_last_res =   6.22143451655379E-12
(PID.TID 0000.0001) // =======================================================
(PID.TID 0000.0001) // Begin MONITOR dynamic field statistics
(PID.TID 0000.0001) // =======================================================
(PID.TID 0000.0001) %MON time_tsnumber                =                    48
(PID.TID 0000.0001) %MON time_secondsf                =   5.7600000000000E+04
(PID.TID 0000.0001) %MON dynstat_eta_max              =   4.9864246904915E-04
(PID.TID 0000.0001) %MON dynstat_eta_min              =  -4.7010213139538E-04
(PID.TID 0000.0001) %MON dynstat_eta_mean             =   7.0156529545784E-17
(PID.TID 0000.0001) %MON dynstat_eta_sd               =   3.5913296356226E-04
(PID.TID 0000.0001) %MON dynstat_eta_del2             =   2.3019829301023E-06
(PID.TID 0000.0001) %MON dynstat_uvel_max             =   5.6886006090462E-02
(PID.TID 0000.0001) %MON dynstat_uvel_min             =  -4.8643873725863E-02
(PID.TID 0000.0001) %MON dynstat_uvel_mean            =  -7.5792176007361E-06
(PID.TID 0000.0001) %MON dynstat_uvel_sd              =   6.1324844188486E-03
(PID.TID 0000.0001) %MON dynstat_uvel_del2            =   3.7440838025972E-05
(PID.TID 0000.0001) %MON dynstat_vvel_max             =   5.4424587625661E-02
(PID.TID 0000.0001) %MON dynstat_vvel_min             =  -5.9084686316807E-02
(PID.TID 0000.0001) %MON dynstat_vvel_mean            =   2.1635483830236E-09
(PID.TID 0000.0001) %MON dynstat_vvel_sd              =   9.7312793287158E-03
(PID.TID 0000.0001) %MON dynstat_vvel_del2            =   8.6346904154796E-05
(PID.TID 0000.0001) %MON dynstat_wvel_max             =   1.4186719380596E-03
(PID.TID 0000.0001) %MON dynstat_wvel_min             =  -1.1620733257560E-03
(PID.TID 0000.0001) %MON dynstat_wvel_mean            =   2.1691563763196E-20
(PID.TID 0000.0001) %MON dynstat_wvel_sd              =   2.4527395565188E-04
(PID.TID 0000.0001) %MON dynstat_wvel_del2            =   2.7939270313406E-06
(PID.TID 0000.0001) %MON dynstat_theta_max            =   1.7020389381261E+01
(PID.TID 0000.0001) %MON dynstat_theta_min            =   1.6979609700229E+01
(PID.TID 0000.0001) %MON dynstat_theta_mean           =   1.6999999918127E+01
(PID.TID 0000.0001) %MON dynstat_theta_sd             =   1.8279748808408E-02
(PID.TID 0000.0001) %MON dynstat_theta_del2           =   1.8028909643390E-05
(PID.TID 0000.0001) %MON dynstat_salt_max             =   1.7020387100725E+01
(PID.TID 0000.0001) %MON dynstat_salt_min             =   1.6979612985765E+01
(PID.TID 0000.0001) %MON dynstat_salt_mean            =   1.7000000006194E+01
(PID.TID 0000.0001) %MON dynstat_salt_sd              =   1.7198847921943E-02
(PID.TID 0000.0001) %MON dynstat_salt_del2            =   2.2667688301828E-05
(PID.TID 0000.0001) %MON advcfl_uvel_max              =   6.8263207308554E-02
(PID.TID 0000.0001) %MON advcfl_vvel_max              =   7.0901623580168E-02
(PID.TID 0000.0001) %MON advcfl_wvel_max              =   3.4048126513429E-01
(PID.TID 0000.0001) %MON advcfl_W_hf_max              =   3.4048126513429E-01
(PID.TID 0000.0001) %MON pe_b_mean                    =   3.1631483073047E-09
(PID.TID 0000.0001) %MON ke_max                       =   1.7826178206067E-03
(PID.TID 0000.0001) %MON ke_mean                      =   6.4258654035258E-05
(PID.TID 0000.0001) %MON ke_vol                       =   2.5000000000000E+11
(PID.TID 0000.0001) %MON vort_r_min                   =  -6.9726239281632E-05
(PID.TID 0000.0001) %MON vort_r_max                   =   8.2125842749745E-05
(PID.TID 0000.0001) %MON vort_a_mean                  =   7.2900000000000E-05
(PID.TID 0000.0001) %MON vort_a_sd                    =   1.3443306167321E-05
(PID.TID 0000.0001) %MON vort_p_mean                  =   7.7363265306123E-05
(PID.TID 0000.0001) %MON vort_p_sd                    =   3.3815755477700E-05
(PID.TID 0000.0001) %MON surfExpan_theta_mean         =  -2.8024041917885E-13
(PID.TID 0000.0001) %MON surfExpan_salt_mean          =  -1.8082731233315E-13
(PID.TID 0000.0001) // =======================================================
(PID.TID 0000.0001) // End MONITOR dynamic field statistics
(PID.TID 0000.0001) // =======================================================
 Computing Diagnostic #    147  momKE        Counter:      12   Parms: SMR     MR      
 Computing Diagnostic #    148  momHDiv      Counter:      12   Parms: SMR     MR      
 Computing Diagnostic #    149  momVort3     Counter:      12   Parms: SZR     MR      
 Computing Diagnostic #    150  Strain       Counter:      12   Parms: SZR     MR      
 Computing Diagnostic #    151  Tension      Counter:      12   Parms: SMR     MR      
 Computing Diagnostic #    123  VISCAHD      Counter:      12   Parms: SM      MR      
 Computing Diagnostic #    124  VISCA4D      Counter:      12   Parms: SM      MR      
 Computing Diagnostic #    121  VISCAHZ      Counter:      12   Parms: SZ      MR      
 Computing Diagnostic #    122  VISCA4Z      Counter:      12   Parms: SZ      MR      
 Computing Diagnostic #    129  VAHDMAX      Counter:      12   Parms: SM      MR      
 Computing Diagnostic #    130  VA4DMAX      Counter:      12   Parms: SM      MR      
 Computing Diagnostic #    127  VAHZMAX      Counter:      12   Parms: SZ      MR      
 Computing Diagnostic #    128  VA4ZMAX      Counter:      12   Parms: SZ      MR      
 Computing Diagnostic #    133  VAHDMIN      Counter:      12   Parms: SM      MR      
 Computing Diagnostic #    134  VA4DMIN      Counter:      12   Parms: SM      MR      
 Computing Diagnostic #    131  VAHZMIN      Counter:      12   Parms: SZ      MR      
 Computing Diagnostic #    132  VA4ZMIN      Counter:      12   Parms: SZ      MR      
 Computing Diagnostic #    137  VAHDLTH      Counter:      12   Parms: SM      MR      
 Computing Diagnostic #    138  VA4DLTH      Counter:      12   Parms: SM      MR      
 Computing Diagnostic #    135  VAHZLTH      Counter:      12   Parms: SZ      MR      
 Computing Diagnostic #    136  VA4ZLTH      Counter:      12   Parms: SZ      MR      
 Computing Diagnostic #    141  VAHDLTHD     Counter:      12   Parms: SM      MR      
 Computing Diagnostic #    142  VA4DLTHD     Counter:      12   Parms: SM      MR      
 Computing Diagnostic #    139  VAHZLTHD     Counter:      12   Parms: SZ      MR      
 Computing Diagnostic #    140  VA4ZLTHD     Counter:      12   Parms: SZ      MR      
 Computing Diagnostic #    145  VAHDSMAG     Counter:      12   Parms: SM      MR      
 Computing Diagnostic #    146  VA4DSMAG     Counter:      12   Parms: SM      MR      
 Computing Diagnostic #    143  VAHZSMAG     Counter:      12   Parms: SZ      MR      
 Computing Diagnostic #    144  VA4ZSMAG     Counter:      12   Parms: SZ      MR      
(PID.TID 0000.0001) %CHECKPOINT        48 ckptA
(PID.TID 0000.0001)   Seconds in section "ALL                    [THE_MODEL_MAIN]":
(PID.TID 0000.0001)           User time:   13.850000000000000
(PID.TID 0000.0001)         System time:  0.32000000000000001
(PID.TID 0000.0001)     Wall clock time:   33.080170869827271
(PID.TID 0000.0001)          No. starts:           1
(PID.TID 0000.0001)           No. stops:           1
(PID.TID 0000.0001)   Seconds in section "INITIALISE_FIXED       [THE_MODEL_MAIN]":
(PID.TID 0000.0001)           User time:  0.38000000000000000
(PID.TID 0000.0001)         System time:  4.00000000000000008E-002
(PID.TID 0000.0001)     Wall clock time:   5.6705138683319092
(PID.TID 0000.0001)          No. starts:           1
(PID.TID 0000.0001)           No. stops:           1
(PID.TID 0000.0001)   Seconds in section "THE_MAIN_LOOP          [THE_MODEL_MAIN]":
(PID.TID 0000.0001)           User time:   13.469999999999999
(PID.TID 0000.0001)         System time:  0.28000000000000003
(PID.TID 0000.0001)     Wall clock time:   27.406128168106079
(PID.TID 0000.0001)          No. starts:           1
(PID.TID 0000.0001)           No. stops:           1
(PID.TID 0000.0001)   Seconds in section "INITIALISE_VARIA    [THE_MAIN_LOOP]":
(PID.TID 0000.0001)           User time:  0.31000000000000005
(PID.TID 0000.0001)         System time:  4.99999999999999958E-002
(PID.TID 0000.0001)     Wall clock time:   2.1403729915618896
(PID.TID 0000.0001)          No. starts:           1
(PID.TID 0000.0001)           No. stops:           1
(PID.TID 0000.0001)   Seconds in section "MAIN LOOP           [THE_MAIN_LOOP]":
(PID.TID 0000.0001)           User time:   13.160000000000000
(PID.TID 0000.0001)         System time:  0.23000000000000001
(PID.TID 0000.0001)     Wall clock time:   25.265712022781372
(PID.TID 0000.0001)          No. starts:           1
(PID.TID 0000.0001)           No. stops:           1
(PID.TID 0000.0001)   Seconds in section "MAIN_DO_LOOP        [THE_MAIN_LOOP]":
(PID.TID 0000.0001)           User time:   13.160000000000000
(PID.TID 0000.0001)         System time:  0.22000000000000000
(PID.TID 0000.0001)     Wall clock time:   25.265564918518066
(PID.TID 0000.0001)          No. starts:          12
(PID.TID 0000.0001)           No. stops:          12
(PID.TID 0000.0001)   Seconds in section "FORWARD_STEP        [MAIN_DO_LOOP]":
(PID.TID 0000.0001)           User time:   13.160000000000000
(PID.TID 0000.0001)         System time:  0.22000000000000000
(PID.TID 0000.0001)     Wall clock time:   25.265334844589233
(PID.TID 0000.0001)          No. starts:          12
(PID.TID 0000.0001)           No. stops:          12
(PID.TID 0000.0001)   Seconds in section "DO_STATEVARS_DIAGS  [FORWARD_STEP]":
(PID.TID 0000.0001)           User time:   0.0000000000000000
(PID.TID 0000.0001)         System time:   0.0000000000000000
(PID.TID 0000.0001)     Wall clock time:  6.43086433410644531E-003
(PID.TID 0000.0001)          No. starts:          36
(PID.TID 0000.0001)           No. stops:          36
(PID.TID 0000.0001)   Seconds in section "LOAD_FIELDS_DRIVER  [FORWARD_STEP]":
(PID.TID 0000.0001)           User time:   0.0000000000000000
(PID.TID 0000.0001)         System time:   0.0000000000000000
(PID.TID 0000.0001)     Wall clock time:  3.68118286132812500E-004
(PID.TID 0000.0001)          No. starts:          12
(PID.TID 0000.0001)           No. stops:          12
(PID.TID 0000.0001)   Seconds in section "EXTERNAL_FLDS_LOAD [LOAD_FLDS_DRIVER]":
(PID.TID 0000.0001)           User time:   0.0000000000000000
(PID.TID 0000.0001)         System time:   0.0000000000000000
(PID.TID 0000.0001)     Wall clock time:  1.30414962768554688E-004
(PID.TID 0000.0001)          No. starts:          12
(PID.TID 0000.0001)           No. stops:          12
(PID.TID 0000.0001)   Seconds in section "DO_ATMOSPHERIC_PHYS [FORWARD_STEP]":
(PID.TID 0000.0001)           User time:   0.0000000000000000
(PID.TID 0000.0001)         System time:   0.0000000000000000
(PID.TID 0000.0001)     Wall clock time:  1.21831893920898438E-004
(PID.TID 0000.0001)          No. starts:          12
(PID.TID 0000.0001)           No. stops:          12
(PID.TID 0000.0001)   Seconds in section "DO_OCEANIC_PHYS     [FORWARD_STEP]":
(PID.TID 0000.0001)           User time:  0.29000000000000092
(PID.TID 0000.0001)         System time:   0.0000000000000000
(PID.TID 0000.0001)     Wall clock time:  0.26739907264709473
(PID.TID 0000.0001)          No. starts:          12
(PID.TID 0000.0001)           No. stops:          12
(PID.TID 0000.0001)   Seconds in section "DYNAMICS            [FORWARD_STEP]":
(PID.TID 0000.0001)           User time:   5.8099999999999952
(PID.TID 0000.0001)         System time:   0.0000000000000000
(PID.TID 0000.0001)     Wall clock time:   5.8365473747253418
(PID.TID 0000.0001)          No. starts:          12
(PID.TID 0000.0001)           No. stops:          12
(PID.TID 0000.0001)   Seconds in section "SOLVE_FOR_PRESSURE  [FORWARD_STEP]":
(PID.TID 0000.0001)           User time:  0.68999999999999950
(PID.TID 0000.0001)         System time:   0.0000000000000000
(PID.TID 0000.0001)     Wall clock time:  0.68424558639526367
(PID.TID 0000.0001)          No. starts:          12
(PID.TID 0000.0001)           No. stops:          12
(PID.TID 0000.0001)   Seconds in section "MOM_CORRECTION_STEP [FORWARD_STEP]":
(PID.TID 0000.0001)           User time:  6.00000000000004974E-002
(PID.TID 0000.0001)         System time:   0.0000000000000000
(PID.TID 0000.0001)     Wall clock time:  8.97667407989501953E-002
(PID.TID 0000.0001)          No. starts:          12
(PID.TID 0000.0001)           No. stops:          12
(PID.TID 0000.0001)   Seconds in section "INTEGR_CONTINUITY   [FORWARD_STEP]":
(PID.TID 0000.0001)           User time:  0.13000000000000078
(PID.TID 0000.0001)         System time:   0.0000000000000000
(PID.TID 0000.0001)     Wall clock time:  0.12354707717895508
(PID.TID 0000.0001)          No. starts:          12
(PID.TID 0000.0001)           No. stops:          12
(PID.TID 0000.0001)   Seconds in section "BLOCKING_EXCHANGES  [FORWARD_STEP]":
(PID.TID 0000.0001)           User time:  0.24000000000000199
(PID.TID 0000.0001)         System time:   0.0000000000000000
(PID.TID 0000.0001)     Wall clock time:  0.21630334854125977
(PID.TID 0000.0001)          No. starts:          24
(PID.TID 0000.0001)           No. stops:          24
(PID.TID 0000.0001)   Seconds in section "THERMODYNAMICS      [FORWARD_STEP]":
(PID.TID 0000.0001)           User time:   4.0000000000000000
(PID.TID 0000.0001)         System time:   0.0000000000000000
(PID.TID 0000.0001)     Wall clock time:   3.9979171752929688
(PID.TID 0000.0001)          No. starts:          12
(PID.TID 0000.0001)           No. stops:          12
(PID.TID 0000.0001)   Seconds in section "TRC_CORRECTION_STEP [FORWARD_STEP]":
(PID.TID 0000.0001)           User time:  2.99999999999993605E-002
(PID.TID 0000.0001)         System time:   0.0000000000000000
(PID.TID 0000.0001)     Wall clock time:  5.01518249511718750E-002
(PID.TID 0000.0001)          No. starts:          12
(PID.TID 0000.0001)           No. stops:          12
(PID.TID 0000.0001)   Seconds in section "DO_STATEVARS_TAVE   [FORWARD_STEP]":
(PID.TID 0000.0001)           User time:   0.0000000000000000
(PID.TID 0000.0001)         System time:   0.0000000000000000
(PID.TID 0000.0001)     Wall clock time:  1.18017196655273438E-004
(PID.TID 0000.0001)          No. starts:          12
(PID.TID 0000.0001)           No. stops:          12
(PID.TID 0000.0001)   Seconds in section "MONITOR             [FORWARD_STEP]":
(PID.TID 0000.0001)           User time:   1.1400000000000006
(PID.TID 0000.0001)         System time:   0.0000000000000000
(PID.TID 0000.0001)     Wall clock time:   1.1393122673034668
(PID.TID 0000.0001)          No. starts:          12
(PID.TID 0000.0001)           No. stops:          12
(PID.TID 0000.0001)   Seconds in section "DO_THE_MODEL_IO     [FORWARD_STEP]":
(PID.TID 0000.0001)           User time:  0.75000000000000000
(PID.TID 0000.0001)         System time:  0.22000000000000000
(PID.TID 0000.0001)     Wall clock time:   12.827807664871216
(PID.TID 0000.0001)          No. starts:          12
(PID.TID 0000.0001)           No. stops:          12
(PID.TID 0000.0001)   Seconds in section "DO_WRITE_PICKUP     [FORWARD_STEP]":
(PID.TID 0000.0001)           User time:  1.99999999999995737E-002
(PID.TID 0000.0001)         System time:   0.0000000000000000
(PID.TID 0000.0001)     Wall clock time:  2.30083465576171875E-002
(PID.TID 0000.0001)          No. starts:          12
(PID.TID 0000.0001)           No. stops:          12
(PID.TID 0000.0001) // ======================================================
(PID.TID 0000.0001) // Tile <-> Tile communication statistics
(PID.TID 0000.0001) // ======================================================
(PID.TID 0000.0001) // o Tile number: 000001
(PID.TID 0000.0001) //         No. X exchanges =              0
(PID.TID 0000.0001) //            Max. X spins =              0
(PID.TID 0000.0001) //            Min. X spins =     1000000000
(PID.TID 0000.0001) //          Total. X spins =              0
(PID.TID 0000.0001) //            Avg. X spins =       0.00E+00
(PID.TID 0000.0001) //         No. Y exchanges =              0
(PID.TID 0000.0001) //            Max. Y spins =              0
(PID.TID 0000.0001) //            Min. Y spins =     1000000000
(PID.TID 0000.0001) //          Total. Y spins =              0
(PID.TID 0000.0001) //            Avg. Y spins =       0.00E+00
(PID.TID 0000.0001) // o Tile number: 000002
(PID.TID 0000.0001) //         No. X exchanges =              0
(PID.TID 0000.0001) //            Max. X spins =              0
(PID.TID 0000.0001) //            Min. X spins =     1000000000
(PID.TID 0000.0001) //          Total. X spins =              0
(PID.TID 0000.0001) //            Avg. X spins =       0.00E+00
(PID.TID 0000.0001) //         No. Y exchanges =              0
(PID.TID 0000.0001) //            Max. Y spins =              0
(PID.TID 0000.0001) //            Min. Y spins =     1000000000
(PID.TID 0000.0001) //          Total. Y spins =              0
(PID.TID 0000.0001) //            Avg. Y spins =       0.00E+00
(PID.TID 0000.0001) // o Tile number: 000003
(PID.TID 0000.0001) //         No. X exchanges =              0
(PID.TID 0000.0001) //            Max. X spins =              0
(PID.TID 0000.0001) //            Min. X spins =     1000000000
(PID.TID 0000.0001) //          Total. X spins =              0
(PID.TID 0000.0001) //            Avg. X spins =       0.00E+00
(PID.TID 0000.0001) //         No. Y exchanges =              0
(PID.TID 0000.0001) //            Max. Y spins =              0
(PID.TID 0000.0001) //            Min. Y spins =     1000000000
(PID.TID 0000.0001) //          Total. Y spins =              0
(PID.TID 0000.0001) //            Avg. Y spins =       0.00E+00
(PID.TID 0000.0001) // o Tile number: 000004
(PID.TID 0000.0001) //         No. X exchanges =              0
(PID.TID 0000.0001) //            Max. X spins =              0
(PID.TID 0000.0001) //            Min. X spins =     1000000000
(PID.TID 0000.0001) //          Total. X spins =              0
(PID.TID 0000.0001) //            Avg. X spins =       0.00E+00
(PID.TID 0000.0001) //         No. Y exchanges =              0
(PID.TID 0000.0001) //            Max. Y spins =              0
(PID.TID 0000.0001) //            Min. Y spins =     1000000000
(PID.TID 0000.0001) //          Total. Y spins =              0
(PID.TID 0000.0001) //            Avg. Y spins =       0.00E+00
(PID.TID 0000.0001) // o Thread number: 000001
(PID.TID 0000.0001) //            No. barriers =          12826
(PID.TID 0000.0001) //      Max. barrier spins =              1
(PID.TID 0000.0001) //      Min. barrier spins =              1
(PID.TID 0000.0001) //     Total barrier spins =          12826
(PID.TID 0000.0001) //      Avg. barrier spins =       1.00E+00
PROGRAM MAIN: Execution ended Normally
