(PID.TID 0000.0001) 
(PID.TID 0000.0001) // ======================================================
(PID.TID 0000.0001) //                      MITgcm UV
(PID.TID 0000.0001) //                      =========
(PID.TID 0000.0001) // ======================================================
(PID.TID 0000.0001) // execution environment starting up...
(PID.TID 0000.0001) 
(PID.TID 0000.0001) // MITgcmUV version:  checkpoint64t
(PID.TID 0000.0001) // Build user:        jmc
(PID.TID 0000.0001) // Build host:        baudelaire
(PID.TID 0000.0001) // Build date:        Wed Feb 12 10:27:08 EST 2014
(PID.TID 0000.0001) 
(PID.TID 0000.0001) // =======================================================
(PID.TID 0000.0001) // Execution Environment parameter file "eedata"
(PID.TID 0000.0001) // =======================================================
(PID.TID 0000.0001) ># Example "eedata" file
(PID.TID 0000.0001) ># Lines beginning "#" are comments
(PID.TID 0000.0001) ># nTx - No. threads per process in X
(PID.TID 0000.0001) ># nTy - No. threads per process in Y
(PID.TID 0000.0001) > &EEPARMS
(PID.TID 0000.0001) > /
(PID.TID 0000.0001) ># Note: Some systems use & as the
(PID.TID 0000.0001) ># namelist terminator. Other systems
(PID.TID 0000.0001) ># use a & character (as shown here).
(PID.TID 0000.0001) 
(PID.TID 0000.0001) // =======================================================
(PID.TID 0000.0001) // Computational Grid Specification ( see files "SIZE.h" )
(PID.TID 0000.0001) //                                  ( and "eedata"       )
(PID.TID 0000.0001) // =======================================================
(PID.TID 0000.0001)      nPx =    1 ; /* No. processes in X */
(PID.TID 0000.0001)      nPy =    1 ; /* No. processes in Y */
(PID.TID 0000.0001)      nSx =    2 ; /* No. tiles in X per process */
(PID.TID 0000.0001)      nSy =    2 ; /* No. tiles in Y per process */
(PID.TID 0000.0001)      sNx =   25 ; /* Tile size in X */
(PID.TID 0000.0001)      sNy =   13 ; /* Tile size in Y */
(PID.TID 0000.0001)      OLx =    3 ; /* Tile overlap distance in X */
(PID.TID 0000.0001)      OLy =    3 ; /* Tile overlap distance in Y */
(PID.TID 0000.0001)      nTx =    1 ; /* No. threads in X per process */
(PID.TID 0000.0001)      nTy =    1 ; /* No. threads in Y per process */
(PID.TID 0000.0001)       Nr =   40 ; /* No. levels in the vertical   */
(PID.TID 0000.0001)       Nx =   50 ; /* Total domain size in X ( = nPx*nSx*sNx ) */
(PID.TID 0000.0001)       Ny =   26 ; /* Total domain size in Y ( = nPy*nSy*sNy ) */
(PID.TID 0000.0001)   nTiles =    4 ; /* Total no. tiles per process ( = nSx*nSy ) */
(PID.TID 0000.0001)   nProcs =    1 ; /* Total no. processes ( = nPx*nPy ) */
(PID.TID 0000.0001) nThreads =    1 ; /* Total no. threads per process ( = nTx*nTy ) */
(PID.TID 0000.0001) usingMPI =    F ; /* Flag used to control whether MPI is in use */
(PID.TID 0000.0001)                   /*  note: To execute a program with MPI calls */
(PID.TID 0000.0001)                   /*  it must be launched appropriately e.g     */
(PID.TID 0000.0001)                   /*  "mpirun -np 64 ......"                    */
(PID.TID 0000.0001) useCoupler=    F ;/* Flag used to control communications with   */
(PID.TID 0000.0001)                   /*  other model components, through a coupler */
(PID.TID 0000.0001) debugMode =    F ; /* print debug msg. (sequence of S/R calls)  */
(PID.TID 0000.0001) printMapIncludesZeros=    F ; /* print zeros in Std.Output maps */
(PID.TID 0000.0001) maxLengthPrt1D=   65 /* maxLength of 1D array printed to StdOut */
(PID.TID 0000.0001) 
(PID.TID 0000.0001) // ======================================================
(PID.TID 0000.0001) // Mapping of tiles to threads
(PID.TID 0000.0001) // ======================================================
(PID.TID 0000.0001) // -o- Thread   1, tiles (   1:   2,   1:   2)
(PID.TID 0000.0001) 
(PID.TID 0000.0001) W2_READPARMS: file data.exch2 not found
(PID.TID 0000.0001) => use W2_EXCH2 default: Single sub-domain (nFacets=1)
(PID.TID 0000.0001) W2_useE2ioLayOut=    T ;/* T: use Exch2 glob IO map; F: use model default */
(PID.TID 0000.0001) W2_mapIO        =  -1 ; /* select option for Exch2 global-IO map */
(PID.TID 0000.0001) W2_printMsg     =  -1 ; /* select option for printing information */
(PID.TID 0000.0001) ===== Start setting W2 TOPOLOGY:
(PID.TID 0000.0001)  write to log-file: w2_tile_topology.0000.log
(PID.TID 0000.0001) =====       setting W2 TOPOLOGY: Done
(PID.TID 0000.0001) 
(PID.TID 0000.0001)  INI_PARMS: opening model parameter file "data"
(PID.TID 0000.0001)  OPEN_COPY_DATA_FILE: opening file data
(PID.TID 0000.0001) // =======================================================
(PID.TID 0000.0001) // Parameter file "data"
(PID.TID 0000.0001) // =======================================================
(PID.TID 0000.0001) ># ====================
(PID.TID 0000.0001) ># | Model parameters |
(PID.TID 0000.0001) ># ====================
(PID.TID 0000.0001) >#
(PID.TID 0000.0001) ># Continuous equation parameters
(PID.TID 0000.0001) > &PARM01
(PID.TID 0000.0001) > viscAr=5.E-5,
(PID.TID 0000.0001) >#- This is the background viscosity used; total=viscah+viscleith
(PID.TID 0000.0001) ># viscAh=1.E2,
(PID.TID 0000.0001) ># viscA4=1.E2,
(PID.TID 0000.0001) >#- This is the background viscosity used on vorticity points
(PID.TID 0000.0001) ># viscAhZ=1.E2,
(PID.TID 0000.0001) ># viscA4Z=1.E2,
(PID.TID 0000.0001) >#- This is the background viscosity used on divergence points
(PID.TID 0000.0001) ># viscAhD=1.E2,
(PID.TID 0000.0001) ># viscA4D=1.E2,
(PID.TID 0000.0001) >#- viscAhD and viscAhZ are set to viscah if they are unset initially
(PID.TID 0000.0001) >#
(PID.TID 0000.0001) >#- This is a maximum gridscale Reynolds number limiter
(PID.TID 0000.0001) ># viscAhReMax=10.,
(PID.TID 0000.0001) ># viscA4ReMax=10.,
(PID.TID 0000.0001) >#- This is a minimum autoscaling viscosity
(PID.TID 0000.0001) ># viscAhGridMin=.01,
(PID.TID 0000.0001) ># viscA4GridMin=.01,
(PID.TID 0000.0001) >#- This is the standard Leith Viscosity, prop to grad(curl v_h)
(PID.TID 0000.0001) > viscC2leith = 1.85,
(PID.TID 0000.0001) >#viscC4leith = 1.85,
(PID.TID 0000.0001) ># -This is an additional Leith Viscosity, prop to grad(div.v_h)
(PID.TID 0000.0001) >#  It traps instabilities that have no signal in grad(curl v_h)
(PID.TID 0000.0001) > viscC2leithD = 1.85,
(PID.TID 0000.0001) >#viscC4leithD = 1.85,
(PID.TID 0000.0001) ># This is harmonic Smagorinsky Coefficient
(PID.TID 0000.0001) ># 0.2-0.9 = value from 3-d turbulence theory; Smagorinsky (1993)
(PID.TID 0000.0001) ># 2.2-4   = stable oceanic values (Griffies and Hallberg, 2000)
(PID.TID 0000.0001) ># 1. smag is approximately the same as 1.85 leith+leithd for this grid spacing
(PID.TID 0000.0001) > viscC2smag = 1.,
(PID.TID 0000.0001) >#viscC4smag = 1.,
(PID.TID 0000.0001) >#- This is the max Viscosity used, be it Smag or Leith, and it scales
(PID.TID 0000.0001) >#  with grid size and timestep
(PID.TID 0000.0001) > viscAhGridMax = 1.,
(PID.TID 0000.0001) >#viscA4GridMax = 1.,
(PID.TID 0000.0001) >#- This uses the full grad(vort) and grad(div)
(PID.TID 0000.0001) >#useFullLeith=.TRUE.,
(PID.TID 0000.0001) >#- This uses the Strain-Tension form for calculating viscous terms
(PID.TID 0000.0001) >#useStrainTensionVisc=.TRUE.,
(PID.TID 0000.0001) > no_slip_sides=.FALSE.,
(PID.TID 0000.0001) > no_slip_bottom=.FALSE.,
(PID.TID 0000.0001) >#vectorInvariantMomentum=.TRUE.,
(PID.TID 0000.0001) > ivdc_kappa=10.,
(PID.TID 0000.0001) > implicitDiffusion=.TRUE.,
(PID.TID 0000.0001) > implicitViscosity=.TRUE.,
(PID.TID 0000.0001) > f0=7.29E-5,
(PID.TID 0000.0001) > beta=0.E-11,
(PID.TID 0000.0001) > useJamartWetPoints=.TRUE.,
(PID.TID 0000.0001) > eosType='LINEAR',
(PID.TID 0000.0001) ># Using Temperature as only Active Tracer
(PID.TID 0000.0001) > tAlpha=2.E-4,
(PID.TID 0000.0001) ># Using Salinity as Spice
(PID.TID 0000.0001) > sBeta =0.E-4,
(PID.TID 0000.0001) > gravity=9.81,
(PID.TID 0000.0001) > rhoNil=1035.,
(PID.TID 0000.0001) > implicitFreeSurface=.TRUE.,
(PID.TID 0000.0001) > staggerTimeStep=.TRUE.,
(PID.TID 0000.0001) > tempAdvScheme=33,
(PID.TID 0000.0001) > saltAdvScheme=33,
(PID.TID 0000.0001) > readBinaryPrec=64,
(PID.TID 0000.0001) > writeBinaryPrec=64,
(PID.TID 0000.0001) > /
(PID.TID 0000.0001) >
(PID.TID 0000.0001) ># Elliptic solver parameters
(PID.TID 0000.0001) > &PARM02
(PID.TID 0000.0001) > cg2dMaxIters=1000,
(PID.TID 0000.0001) > cg2dTargetResidual=1.E-11,
(PID.TID 0000.0001) > cg3dMaxIters=40,
(PID.TID 0000.0001) > cg3dTargetResidual=1.E-9,
(PID.TID 0000.0001) > /
(PID.TID 0000.0001) >
(PID.TID 0000.0001) ># Time stepping parameters
(PID.TID 0000.0001) > &PARM03
(PID.TID 0000.0001) > nIter0=0,
(PID.TID 0000.0001) >#endTime=86400.,
(PID.TID 0000.0001) >#- for testing, only run for 12 iterations:
(PID.TID 0000.0001) > nTimeSteps=12,
(PID.TID 0000.0001) > deltaT=1200.,
(PID.TID 0000.0001) > abEps=0.01,
(PID.TID 0000.0001) >#- for testing, reduce amount of output by commenting out output frequencies:
(PID.TID 0000.0001) ># pchkptFreq=43200.,
(PID.TID 0000.0001) >#taveFreq=7200.,
(PID.TID 0000.0001) >#dumpFreq=7200.,
(PID.TID 0000.0001) >#diagFreq=7200.,
(PID.TID 0000.0001) > monitorSelect=2,
(PID.TID 0000.0001) > monitorFreq=1200.,
(PID.TID 0000.0001) > /
(PID.TID 0000.0001) >
(PID.TID 0000.0001) ># Gridding parameters
(PID.TID 0000.0001) > &PARM04
(PID.TID 0000.0001) > usingCartesianGrid=.TRUE.,
(PID.TID 0000.0001) > delR= 40*5.0,
(PID.TID 0000.0001) > dxSpacing=1.E3,
(PID.TID 0000.0001) > dySpacing=1.E3,
(PID.TID 0000.0001) > /
(PID.TID 0000.0001) >
(PID.TID 0000.0001) ># Input datasets
(PID.TID 0000.0001) > &PARM05
(PID.TID 0000.0001) > bathyFile='topo_sl.bin',
(PID.TID 0000.0001) > hydrogThetaFile='thetaInitial.bin',
(PID.TID 0000.0001) > hydrogSaltFile='spiceInitial.bin',
(PID.TID 0000.0001) > /
(PID.TID 0000.0001) 
(PID.TID 0000.0001)  INI_PARMS ; starts to read PARM01
(PID.TID 0000.0001)  INI_PARMS ; read PARM01 : OK
(PID.TID 0000.0001)  INI_PARMS ; starts to read PARM02
(PID.TID 0000.0001)  INI_PARMS ; read PARM02 : OK
(PID.TID 0000.0001)  INI_PARMS ; starts to read PARM03
(PID.TID 0000.0001)  INI_PARMS ; read PARM03 : OK
(PID.TID 0000.0001)  INI_PARMS ; starts to read PARM04
(PID.TID 0000.0001)  INI_PARMS ; read PARM04 : OK
(PID.TID 0000.0001)  INI_PARMS ; starts to read PARM05
(PID.TID 0000.0001)  INI_PARMS ; read PARM05 : OK
(PID.TID 0000.0001)  INI_PARMS: finished reading file "data"
(PID.TID 0000.0001)  PACKAGES_BOOT: opening data.pkg
(PID.TID 0000.0001)  OPEN_COPY_DATA_FILE: opening file data.pkg
(PID.TID 0000.0001) // =======================================================
(PID.TID 0000.0001) // Parameter file "data.pkg"
(PID.TID 0000.0001) // =======================================================
(PID.TID 0000.0001) ># Packages
(PID.TID 0000.0001) > &PACKAGES
(PID.TID 0000.0001) >  useKPP     = .FALSE.,
(PID.TID 0000.0001) >  useMNC     = .TRUE.,
(PID.TID 0000.0001) >  useDiagnostics=.TRUE.,
(PID.TID 0000.0001) > /
(PID.TID 0000.0001) 
(PID.TID 0000.0001)  PACKAGES_BOOT: finished reading data.pkg
(PID.TID 0000.0001)  PACKAGES_BOOT: On/Off package Summary
 --------  pkgs with a standard "usePKG" On/Off switch in "data.pkg":  --------
 pkg/flt                  compiled but not used ( useFLT                   = F )
 pkg/diagnostics          compiled   and   used ( useDiagnostics           = T )
 pkg/mnc                  compiled   and   used ( useMNC                   = T )
 -------- pkgs without standard "usePKG" On/Off switch in "data.pkg":  --------
 pkg/generic_advdiff      compiled   and   used ( useGAD                   = T )
 pkg/mom_common           compiled   and   used ( momStepping              = T )
 pkg/mom_vecinv           compiled but not used ( +vectorInvariantMomentum = F )
 pkg/mom_fluxform         compiled   and   used ( & not vectorInvariantMom = T )
 pkg/monitor              compiled   and   used ( monitorFreq > 0.         = T )
 pkg/timeave              compiled but not used ( taveFreq > 0.            = F )
 pkg/debug                compiled but not used ( debugMode                = F )
 pkg/exch2                compiled   and   used
 pkg/rw                   compiled   and   used
 pkg/mdsio                compiled   and   used
(PID.TID 0000.0001)  PACKAGES_BOOT: End of package Summary
(PID.TID 0000.0001) 
(PID.TID 0000.0001)  MNC_READPARMS: opening file 'data.mnc'
(PID.TID 0000.0001)  OPEN_COPY_DATA_FILE: opening file data.mnc
(PID.TID 0000.0001) // =======================================================
(PID.TID 0000.0001) // Parameter file "data.mnc"
(PID.TID 0000.0001) // =======================================================
(PID.TID 0000.0001) ># Example "data.mnc" file
(PID.TID 0000.0001) ># Lines beginning "#" are comments
(PID.TID 0000.0001) > &MNC_01
(PID.TID 0000.0001) ># mnc_echo_gvtypes=.FALSE.,
(PID.TID 0000.0001) ># mnc_use_indir=.FALSE.,
(PID.TID 0000.0001) > mnc_use_outdir=.TRUE.,
(PID.TID 0000.0001) > mnc_outdir_str='mnc_test_',
(PID.TID 0000.0001) ># mnc_outdir_date=.TRUE.,
(PID.TID 0000.0001) > monitor_mnc=.FALSE.,
(PID.TID 0000.0001) >#snapshot_mnc=.FALSE.,
(PID.TID 0000.0001) >#timeave_mnc=.FALSE.,
(PID.TID 0000.0001) > pickup_read_mnc=.FALSE.,
(PID.TID 0000.0001) > pickup_write_mnc=.FALSE.,
(PID.TID 0000.0001) > /
(PID.TID 0000.0001) ># Note: Some systems use & as the
(PID.TID 0000.0001) ># namelist terminator. Other systems
(PID.TID 0000.0001) ># use a & character (as shown here).
(PID.TID 0000.0001) 
(PID.TID 0000.0001)  MNC_READPARMS: finished reading data.mnc
(PID.TID 0000.0001)  DIAGNOSTICS_READPARMS: opening data.diagnostics
(PID.TID 0000.0001)  OPEN_COPY_DATA_FILE: opening file data.diagnostics
(PID.TID 0000.0001) // =======================================================
(PID.TID 0000.0001) // Parameter file "data.diagnostics"
(PID.TID 0000.0001) // =======================================================
(PID.TID 0000.0001) ># Diagnostic Package Choices
(PID.TID 0000.0001) >#--------------------
(PID.TID 0000.0001) >#  dumpAtLast (logical): always write output at the end of simulation (default=F)
(PID.TID 0000.0001) >#  diag_mnc   (logical): write to NetCDF files (default=useMNC)
(PID.TID 0000.0001) >#--for each output-stream:
(PID.TID 0000.0001) >#  fileName(n) : prefix of the output file name (max 80c long) for outp.stream n
(PID.TID 0000.0001) >#  frequency(n):< 0 : write snap-shot output every |frequency| seconds
(PID.TID 0000.0001) >#               > 0 : write time-average output every frequency seconds
(PID.TID 0000.0001) >#  timePhase(n)     : write at time = timePhase + multiple of |frequency|
(PID.TID 0000.0001) >#    averagingFreq  : frequency (in s) for periodic averaging interval
(PID.TID 0000.0001) >#    averagingPhase : phase     (in s) for periodic averaging interval
(PID.TID 0000.0001) >#    repeatCycle    : number of averaging intervals in 1 cycle
(PID.TID 0000.0001) >#  levels(:,n) : list of levels to write to file (Notes: declared as REAL)
(PID.TID 0000.0001) >#                when this entry is missing, select all common levels of this list
(PID.TID 0000.0001) >#  fields(:,n) : list of selected diagnostics fields (8.c) in outp.stream n
(PID.TID 0000.0001) >#                (see "available_diagnostics.log" file for the full list of diags)
(PID.TID 0000.0001) >#  missing_value(n) : missing value for real-type fields in output file "n"
(PID.TID 0000.0001) >#  fileFlags(n)     : specific code (8c string) for output file "n"
(PID.TID 0000.0001) >#--------------------
(PID.TID 0000.0001) > &DIAGNOSTICS_LIST
(PID.TID 0000.0001) >  dumpAtLast=.TRUE.,
(PID.TID 0000.0001) ># diag_mnc=.FALSE.,
(PID.TID 0000.0001) >#--
(PID.TID 0000.0001) >  fields(1:5,1)  = 'momKE   ','momHDiv ','momVort3',
(PID.TID 0000.0001) >                   'Strain  ','Tension ',
(PID.TID 0000.0001) >   fileName(1) = 'momDiag',
(PID.TID 0000.0001) >  frequency(1) = 864000.,
(PID.TID 0000.0001) >  fields(1:24,2) = 'VISCAHD ','VISCA4D ','VISCAHZ ','VISCA4Z ',
(PID.TID 0000.0001) >                   'VAHDMAX ','VA4DMAX ','VAHZMAX ','VA4ZMAX ',
(PID.TID 0000.0001) >                   'VAHDMIN ','VA4DMIN ','VAHZMIN ','VA4ZMIN ',
(PID.TID 0000.0001) >                   'VAHDLTH ','VA4DLTH ','VAHZLTH ','VA4ZLTH ',
(PID.TID 0000.0001) >                   'VAHDLTHD','VA4DLTHD','VAHZLTHD','VA4ZLTHD',
(PID.TID 0000.0001) >                   'VAHDSMAG','VA4DSMAG','VAHZSMAG','VA4ZSMAG',
(PID.TID 0000.0001) >   fileName(2) = 'viscDiag',
(PID.TID 0000.0001) >  frequency(2) = 864000.,
(PID.TID 0000.0001) > /
(PID.TID 0000.0001) >
(PID.TID 0000.0001) >#--------------------
(PID.TID 0000.0001) ># Parameter for Diagnostics of per level statistics:
(PID.TID 0000.0001) >#--------------------
(PID.TID 0000.0001) >#  diagSt_mnc (logical): write stat-diags to NetCDF files (default=diag_mnc)
(PID.TID 0000.0001) >#  diagSt_regMaskFile : file containing the region-mask to read-in
(PID.TID 0000.0001) >#  nSetRegMskFile   : number of region-mask sets within the region-mask file
(PID.TID 0000.0001) >#  set_regMask(i)   : region-mask set-index that identifies the region "i"
(PID.TID 0000.0001) >#  val_regMask(i)   : region "i" identifier value in the region mask
(PID.TID 0000.0001) >#--for each output-stream:
(PID.TID 0000.0001) >#  stat_fName(n) : prefix of the output file name (max 80c long) for outp.stream n
(PID.TID 0000.0001) >#  stat_freq(n):< 0 : write snap-shot output every |stat_freq| seconds
(PID.TID 0000.0001) >#               > 0 : write time-average output every stat_freq seconds
(PID.TID 0000.0001) >#  stat_phase(n)    : write at time = stat_phase + multiple of |stat_freq|
(PID.TID 0000.0001) >#  stat_region(:,n) : list of "regions" (default: 1 region only=global)
(PID.TID 0000.0001) >#  stat_fields(:,n) : list of selected diagnostics fields (8.c) in outp.stream n
(PID.TID 0000.0001) >#                (see "available_diagnostics.log" file for the full list of diags)
(PID.TID 0000.0001) >#--------------------
(PID.TID 0000.0001) > &DIAG_STATIS_PARMS
(PID.TID 0000.0001) >#- an example just to check the agreement with MONITOR output:
(PID.TID 0000.0001) >#stat_fields(1:5,1)  = 'ETAN    ','UVEL    ','VVEL    ','WVEL    ', 'THETA   ',
(PID.TID 0000.0001) ># stat_fName(1) = 'dynStDiag',
(PID.TID 0000.0001) >#  stat_freq(1) = -864000.,
(PID.TID 0000.0001) ># stat_phase(1) = 0.,
(PID.TID 0000.0001) > /
(PID.TID 0000.0001) >
(PID.TID 0000.0001) 
(PID.TID 0000.0001) S/R DIAGNOSTICS_READPARMS, read namelist "diagnostics_list": start
(PID.TID 0000.0001) S/R DIAGNOSTICS_READPARMS, read namelist "diagnostics_list": OK
(PID.TID 0000.0001) S/R DIAGNOSTICS_READPARMS, read namelist "DIAG_STATIS_PARMS": start
(PID.TID 0000.0001) S/R DIAGNOSTICS_READPARMS, read namelist "DIAG_STATIS_PARMS": OK
(PID.TID 0000.0001)  DIAGNOSTICS_READPARMS: global parameter summary:
(PID.TID 0000.0001)  dumpAtLast = /* always write time-ave diags at the end */
(PID.TID 0000.0001)                   T
(PID.TID 0000.0001)     ;
(PID.TID 0000.0001)  diag_mnc =   /* write NetCDF output files */
(PID.TID 0000.0001)                   T
(PID.TID 0000.0001)     ;
(PID.TID 0000.0001)  useMissingValue = /* put MissingValue where mask = 0 */
(PID.TID 0000.0001)                   F
(PID.TID 0000.0001)     ;
(PID.TID 0000.0001)  diagCG_maxIters = /* max number of iters in diag_cg2d */
(PID.TID 0000.0001)                    1000
(PID.TID 0000.0001)     ;
(PID.TID 0000.0001)  diagCG_resTarget = /* residual target for diag_cg2d */
(PID.TID 0000.0001)                 9.999999999999999E-12
(PID.TID 0000.0001)     ;
(PID.TID 0000.0001) -----------------------------------------------------
(PID.TID 0000.0001)  DIAGNOSTICS_READPARMS: active diagnostics summary:
(PID.TID 0000.0001) -----------------------------------------------------
(PID.TID 0000.0001) Creating Output Stream: momDiag
(PID.TID 0000.0001) Output Frequency:     864000.000000 ; Phase:           0.000000
(PID.TID 0000.0001)  Averaging Freq.:     864000.000000 , Phase:           0.000000 , Cycle:   1
(PID.TID 0000.0001)  missing value: -9.990000000000E+02
(PID.TID 0000.0001)  Levels:    will be set later
(PID.TID 0000.0001)  Fields:    momKE    momHDiv  momVort3 Strain   Tension
(PID.TID 0000.0001) Creating Output Stream: viscDiag
(PID.TID 0000.0001) Output Frequency:     864000.000000 ; Phase:           0.000000
(PID.TID 0000.0001)  Averaging Freq.:     864000.000000 , Phase:           0.000000 , Cycle:   1
(PID.TID 0000.0001)  missing value: -9.990000000000E+02
(PID.TID 0000.0001)  Levels:    will be set later
(PID.TID 0000.0001)  Fields:    VISCAHD  VISCA4D  VISCAHZ  VISCA4Z  VAHDMAX  VA4DMAX  VAHZMAX  VA4ZMAX  VAHDMIN  VA4DMIN
(PID.TID 0000.0001)  Fields:    VAHZMIN  VA4ZMIN  VAHDLTH  VA4DLTH  VAHZLTH  VA4ZLTH  VAHDLTHD VA4DLTHD VAHZLTHD VA4ZLTHD
(PID.TID 0000.0001)  Fields:    VAHDSMAG VA4DSMAG VAHZSMAG VA4ZSMAG
(PID.TID 0000.0001) -----------------------------------------------------
(PID.TID 0000.0001)  DIAGNOSTICS_READPARMS: statistics diags. summary:
(PID.TID 0000.0001) -----------------------------------------------------
(PID.TID 0000.0001) 
(PID.TID 0000.0001) SET_PARMS: done
(PID.TID 0000.0001) Enter INI_VERTICAL_GRID: setInterFDr=    T ; setCenterDr=    F
(PID.TID 0000.0001) %MON XC_max                       =   4.9500000000000E+04
(PID.TID 0000.0001) %MON XC_min                       =   5.0000000000000E+02
(PID.TID 0000.0001) %MON XC_mean                      =   2.5000000000000E+04
(PID.TID 0000.0001) %MON XC_sd                        =   1.4430869689662E+04
(PID.TID 0000.0001) %MON XG_max                       =   4.9000000000000E+04
(PID.TID 0000.0001) %MON XG_min                       =   0.0000000000000E+00
(PID.TID 0000.0001) %MON XG_mean                      =   2.4500000000000E+04
(PID.TID 0000.0001) %MON XG_sd                        =   1.4430869689662E+04
(PID.TID 0000.0001) %MON DXC_max                      =   1.0000000000000E+03
(PID.TID 0000.0001) %MON DXC_min                      =   1.0000000000000E+03
(PID.TID 0000.0001) %MON DXC_mean                     =   1.0000000000000E+03
(PID.TID 0000.0001) %MON DXC_sd                       =   0.0000000000000E+00
(PID.TID 0000.0001) %MON DXF_max                      =   1.0000000000000E+03
(PID.TID 0000.0001) %MON DXF_min                      =   1.0000000000000E+03
(PID.TID 0000.0001) %MON DXF_mean                     =   1.0000000000000E+03
(PID.TID 0000.0001) %MON DXF_sd                       =   0.0000000000000E+00
(PID.TID 0000.0001) %MON DXG_max                      =   1.0000000000000E+03
(PID.TID 0000.0001) %MON DXG_min                      =   1.0000000000000E+03
(PID.TID 0000.0001) %MON DXG_mean                     =   1.0000000000000E+03
(PID.TID 0000.0001) %MON DXG_sd                       =   0.0000000000000E+00
(PID.TID 0000.0001) %MON DXV_max                      =   1.0000000000000E+03
(PID.TID 0000.0001) %MON DXV_min                      =   1.0000000000000E+03
(PID.TID 0000.0001) %MON DXV_mean                     =   1.0000000000000E+03
(PID.TID 0000.0001) %MON DXV_sd                       =   0.0000000000000E+00
(PID.TID 0000.0001) %MON YC_max                       =   2.5500000000000E+04
(PID.TID 0000.0001) %MON YC_min                       =   5.0000000000000E+02
(PID.TID 0000.0001) %MON YC_mean                      =   1.3000000000000E+04
(PID.TID 0000.0001) %MON YC_sd                        =   7.5000000000000E+03
(PID.TID 0000.0001) %MON YG_max                       =   2.5000000000000E+04
(PID.TID 0000.0001) %MON YG_min                       =   0.0000000000000E+00
(PID.TID 0000.0001) %MON YG_mean                      =   1.2500000000000E+04
(PID.TID 0000.0001) %MON YG_sd                        =   7.5000000000000E+03
(PID.TID 0000.0001) %MON DYC_max                      =   1.0000000000000E+03
(PID.TID 0000.0001) %MON DYC_min                      =   1.0000000000000E+03
(PID.TID 0000.0001) %MON DYC_mean                     =   1.0000000000000E+03
(PID.TID 0000.0001) %MON DYC_sd                       =   0.0000000000000E+00
(PID.TID 0000.0001) %MON DYF_max                      =   1.0000000000000E+03
(PID.TID 0000.0001) %MON DYF_min                      =   1.0000000000000E+03
(PID.TID 0000.0001) %MON DYF_mean                     =   1.0000000000000E+03
(PID.TID 0000.0001) %MON DYF_sd                       =   0.0000000000000E+00
(PID.TID 0000.0001) %MON DYG_max                      =   1.0000000000000E+03
(PID.TID 0000.0001) %MON DYG_min                      =   1.0000000000000E+03
(PID.TID 0000.0001) %MON DYG_mean                     =   1.0000000000000E+03
(PID.TID 0000.0001) %MON DYG_sd                       =   0.0000000000000E+00
(PID.TID 0000.0001) %MON DYU_max                      =   1.0000000000000E+03
(PID.TID 0000.0001) %MON DYU_min                      =   1.0000000000000E+03
(PID.TID 0000.0001) %MON DYU_mean                     =   1.0000000000000E+03
(PID.TID 0000.0001) %MON DYU_sd                       =   0.0000000000000E+00
(PID.TID 0000.0001) %MON RA_max                       =   1.0000000000000E+06
(PID.TID 0000.0001) %MON RA_min                       =   1.0000000000000E+06
(PID.TID 0000.0001) %MON RA_mean                      =   1.0000000000000E+06
(PID.TID 0000.0001) %MON RA_sd                        =   0.0000000000000E+00
(PID.TID 0000.0001) %MON RAW_max                      =   1.0000000000000E+06
(PID.TID 0000.0001) %MON RAW_min                      =   1.0000000000000E+06
(PID.TID 0000.0001) %MON RAW_mean                     =   1.0000000000000E+06
(PID.TID 0000.0001) %MON RAW_sd                       =   0.0000000000000E+00
(PID.TID 0000.0001) %MON RAS_max                      =   1.0000000000000E+06
(PID.TID 0000.0001) %MON RAS_min                      =   1.0000000000000E+06
(PID.TID 0000.0001) %MON RAS_mean                     =   1.0000000000000E+06
(PID.TID 0000.0001) %MON RAS_sd                       =   0.0000000000000E+00
(PID.TID 0000.0001) %MON RAZ_max                      =   1.0000000000000E+06
(PID.TID 0000.0001) %MON RAZ_min                      =   1.0000000000000E+06
(PID.TID 0000.0001) %MON RAZ_mean                     =   1.0000000000000E+06
(PID.TID 0000.0001) %MON RAZ_sd                       =   0.0000000000000E+00
(PID.TID 0000.0001) %MON AngleCS_max                  =   1.0000000000000E+00
(PID.TID 0000.0001) %MON AngleCS_min                  =   1.0000000000000E+00
(PID.TID 0000.0001) %MON AngleCS_mean                 =   1.0000000000000E+00
(PID.TID 0000.0001) %MON AngleCS_sd                   =   0.0000000000000E+00
(PID.TID 0000.0001) %MON AngleSN_max                  =   0.0000000000000E+00
(PID.TID 0000.0001) %MON AngleSN_min                  =   0.0000000000000E+00
(PID.TID 0000.0001) %MON AngleSN_mean                 =   0.0000000000000E+00
(PID.TID 0000.0001) %MON AngleSN_sd                   =   0.0000000000000E+00
(PID.TID 0000.0001)  MDS_READ_FIELD: opening global file: topo_sl.bin
(PID.TID 0000.0001) // =======================================================
(PID.TID 0000.0001) // Field Model R_low (ini_masks_etc)
(PID.TID 0000.0001) // CMIN =         -2.000000000000000E+02
(PID.TID 0000.0001) // CMAX =         -2.000000000000000E+02
(PID.TID 0000.0001) // CINT =          0.000000000000000E+00
(PID.TID 0000.0001) // SYMBOLS (CMIN->CMAX): -abcdefghijklmnopqrstuvwxyz+
(PID.TID 0000.0001) //                  0.0: .
(PID.TID 0000.0001) // RANGE I (Lo:Hi:Step):(    -2:    53:     1)
(PID.TID 0000.0001) // RANGE J (Lo:Hi:Step):(    29:    -2:    -1)
(PID.TID 0000.0001) // RANGE K (Lo:Hi:Step):(   1:   1:   1)
(PID.TID 0000.0001) // =======================================================
(PID.TID 0000.0001) // =======================================================
(PID.TID 0000.0001) // END OF FIELD                                          =
(PID.TID 0000.0001) // =======================================================
(PID.TID 0000.0001) 
(PID.TID 0000.0001) // =======================================================
(PID.TID 0000.0001) // Field Model Ro_surf (ini_masks_etc)
(PID.TID 0000.0001) // CMIN =          1.000000000000000E+32
(PID.TID 0000.0001) // CMAX =         -1.000000000000000E+32
(PID.TID 0000.0001) // CINT =          0.000000000000000E+00
(PID.TID 0000.0001) // SYMBOLS (CMIN->CMAX): -abcdefghijklmnopqrstuvwxyz+
(PID.TID 0000.0001) //                  0.0: .
(PID.TID 0000.0001) // RANGE I (Lo:Hi:Step):(    -2:    53:     1)
(PID.TID 0000.0001) // RANGE J (Lo:Hi:Step):(    29:    -2:    -1)
(PID.TID 0000.0001) // RANGE K (Lo:Hi:Step):(   1:   1:   1)
(PID.TID 0000.0001) // =======================================================
(PID.TID 0000.0001) // =======================================================
(PID.TID 0000.0001) // END OF FIELD                                          =
(PID.TID 0000.0001) // =======================================================
(PID.TID 0000.0001) 
(PID.TID 0000.0001) // =======================================================
(PID.TID 0000.0001) // Field hFacC at iteration          0
(PID.TID 0000.0001) // CMIN =          1.000000000000000E+00
(PID.TID 0000.0001) // CMAX =          1.000000000000000E+00
(PID.TID 0000.0001) // CINT =          0.000000000000000E+00
(PID.TID 0000.0001) // SYMBOLS (CMIN->CMAX): -abcdefghijklmnopqrstuvwxyz+
(PID.TID 0000.0001) //                  0.0: .
(PID.TID 0000.0001) // RANGE I (Lo:Hi:Step):(    -2:    53:     1)
(PID.TID 0000.0001) // RANGE J (Lo:Hi:Step):(    29:    -2:    -1)
(PID.TID 0000.0001) // RANGE K (Lo:Hi:Step):(   1:   1:   1)
(PID.TID 0000.0001) // =======================================================
(PID.TID 0000.0001) // =======================================================
(PID.TID 0000.0001) // END OF FIELD                                          =
(PID.TID 0000.0001) // =======================================================
(PID.TID 0000.0001) 
(PID.TID 0000.0001) // =======================================================
(PID.TID 0000.0001) // Field hFacW at iteration          0
(PID.TID 0000.0001) // CMIN =          1.000000000000000E+00
(PID.TID 0000.0001) // CMAX =          1.000000000000000E+00
(PID.TID 0000.0001) // CINT =          0.000000000000000E+00
(PID.TID 0000.0001) // SYMBOLS (CMIN->CMAX): -abcdefghijklmnopqrstuvwxyz+
(PID.TID 0000.0001) //                  0.0: .
(PID.TID 0000.0001) // RANGE I (Lo:Hi:Step):(    -2:    53:     1)
(PID.TID 0000.0001) // RANGE J (Lo:Hi:Step):(    29:    -2:    -1)
(PID.TID 0000.0001) // RANGE K (Lo:Hi:Step):(   1:   1:   1)
(PID.TID 0000.0001) // =======================================================
(PID.TID 0000.0001) // =======================================================
(PID.TID 0000.0001) // END OF FIELD                                          =
(PID.TID 0000.0001) // =======================================================
(PID.TID 0000.0001) 
(PID.TID 0000.0001) // =======================================================
(PID.TID 0000.0001) // Field hFacS at iteration          0
(PID.TID 0000.0001) // CMIN =          1.000000000000000E+00
(PID.TID 0000.0001) // CMAX =          1.000000000000000E+00
(PID.TID 0000.0001) // CINT =          0.000000000000000E+00
(PID.TID 0000.0001) // SYMBOLS (CMIN->CMAX): -abcdefghijklmnopqrstuvwxyz+
(PID.TID 0000.0001) //                  0.0: .
(PID.TID 0000.0001) // RANGE I (Lo:Hi:Step):(    -2:    53:     1)
(PID.TID 0000.0001) // RANGE J (Lo:Hi:Step):(    29:    -2:    -1)
(PID.TID 0000.0001) // RANGE K (Lo:Hi:Step):(   1:   1:   1)
(PID.TID 0000.0001) // =======================================================
(PID.TID 0000.0001) // =======================================================
(PID.TID 0000.0001) // END OF FIELD                                          =
(PID.TID 0000.0001) // =======================================================
(PID.TID 0000.0001) 
(PID.TID 0000.0001) GAD_INIT_FIXED: GAD_OlMinSize=  2  0  1
(PID.TID 0000.0001) 
(PID.TID 0000.0001) // ===================================
(PID.TID 0000.0001) // GAD parameters :
(PID.TID 0000.0001) // ===================================
(PID.TID 0000.0001) tempAdvScheme =   /* Temp. Horiz.Advection scheme selector */
(PID.TID 0000.0001)                      33
(PID.TID 0000.0001)     ;
(PID.TID 0000.0001) tempVertAdvScheme =   /* Temp. Vert. Advection scheme selector */
(PID.TID 0000.0001)                      33
(PID.TID 0000.0001)     ;
(PID.TID 0000.0001) tempMultiDimAdvec =   /* use Muti-Dim Advec method for Temp */
(PID.TID 0000.0001)                   T
(PID.TID 0000.0001)     ;
(PID.TID 0000.0001) tempSOM_Advection = /* use 2nd Order Moment Advection for Temp */
(PID.TID 0000.0001)                   F
(PID.TID 0000.0001)     ;
(PID.TID 0000.0001) AdamsBashforthGt = /* apply Adams-Bashforth extrapolation on Gt */
(PID.TID 0000.0001)                   F
(PID.TID 0000.0001)     ;
(PID.TID 0000.0001) AdamsBashforth_T = /* apply Adams-Bashforth extrapolation on Temp */
(PID.TID 0000.0001)                   F
(PID.TID 0000.0001)     ;
(PID.TID 0000.0001) saltAdvScheme =   /* Salt. Horiz.advection scheme selector */
(PID.TID 0000.0001)                      33
(PID.TID 0000.0001)     ;
(PID.TID 0000.0001) saltVertAdvScheme =   /* Salt. Vert. Advection scheme selector */
(PID.TID 0000.0001)                      33
(PID.TID 0000.0001)     ;
(PID.TID 0000.0001) saltMultiDimAdvec =   /* use Muti-Dim Advec method for Salt */
(PID.TID 0000.0001)                   T
(PID.TID 0000.0001)     ;
(PID.TID 0000.0001) saltSOM_Advection = /* use 2nd Order Moment Advection for Salt */
(PID.TID 0000.0001)                   F
(PID.TID 0000.0001)     ;
(PID.TID 0000.0001) AdamsBashforthGs = /* apply Adams-Bashforth extrapolation on Gs */
(PID.TID 0000.0001)                   F
(PID.TID 0000.0001)     ;
(PID.TID 0000.0001) AdamsBashforth_S = /* apply Adams-Bashforth extrapolation on Salt */
(PID.TID 0000.0001)                   F
(PID.TID 0000.0001)     ;
(PID.TID 0000.0001) // ===================================
(PID.TID 0000.0001) ------------------------------------------------------------
(PID.TID 0000.0001) DIAGNOSTICS_SET_LEVELS: done
(PID.TID 0000.0001)  Total Nb of available Diagnostics: ndiagt=   183
(PID.TID 0000.0001)  write list of available Diagnostics to file: available_diagnostics.log
(PID.TID 0000.0001) SETDIAG: Allocate 40 x  1 Levels for Diagnostic #   147 momKE
(PID.TID 0000.0001) SETDIAG: Allocate 40 x  1 Levels for Diagnostic #   148 momHDiv
(PID.TID 0000.0001) SETDIAG: Allocate 40 x  1 Levels for Diagnostic #   149 momVort3
(PID.TID 0000.0001) SETDIAG: Allocate 40 x  1 Levels for Diagnostic #   150 Strain
(PID.TID 0000.0001) SETDIAG: Allocate 40 x  1 Levels for Diagnostic #   151 Tension
(PID.TID 0000.0001) SETDIAG: Allocate 40 x  1 Levels for Diagnostic #   123 VISCAHD
(PID.TID 0000.0001) SETDIAG: Allocate 40 x  1 Levels for Diagnostic #   124 VISCA4D
(PID.TID 0000.0001) SETDIAG: Allocate 40 x  1 Levels for Diagnostic #   121 VISCAHZ
(PID.TID 0000.0001) SETDIAG: Allocate 40 x  1 Levels for Diagnostic #   122 VISCA4Z
(PID.TID 0000.0001) SETDIAG: Allocate 40 x  1 Levels for Diagnostic #   129 VAHDMAX
(PID.TID 0000.0001) SETDIAG: Allocate 40 x  1 Levels for Diagnostic #   130 VA4DMAX
(PID.TID 0000.0001) SETDIAG: Allocate 40 x  1 Levels for Diagnostic #   127 VAHZMAX
(PID.TID 0000.0001) SETDIAG: Allocate 40 x  1 Levels for Diagnostic #   128 VA4ZMAX
(PID.TID 0000.0001) SETDIAG: Allocate 40 x  1 Levels for Diagnostic #   133 VAHDMIN
(PID.TID 0000.0001) SETDIAG: Allocate 40 x  1 Levels for Diagnostic #   134 VA4DMIN
(PID.TID 0000.0001) SETDIAG: Allocate 40 x  1 Levels for Diagnostic #   131 VAHZMIN
(PID.TID 0000.0001) SETDIAG: Allocate 40 x  1 Levels for Diagnostic #   132 VA4ZMIN
(PID.TID 0000.0001) SETDIAG: Allocate 40 x  1 Levels for Diagnostic #   137 VAHDLTH
(PID.TID 0000.0001) SETDIAG: Allocate 40 x  1 Levels for Diagnostic #   138 VA4DLTH
(PID.TID 0000.0001) SETDIAG: Allocate 40 x  1 Levels for Diagnostic #   135 VAHZLTH
(PID.TID 0000.0001) SETDIAG: Allocate 40 x  1 Levels for Diagnostic #   136 VA4ZLTH
(PID.TID 0000.0001) SETDIAG: Allocate 40 x  1 Levels for Diagnostic #   141 VAHDLTHD
(PID.TID 0000.0001) SETDIAG: Allocate 40 x  1 Levels for Diagnostic #   142 VA4DLTHD
(PID.TID 0000.0001) SETDIAG: Allocate 40 x  1 Levels for Diagnostic #   139 VAHZLTHD
(PID.TID 0000.0001) SETDIAG: Allocate 40 x  1 Levels for Diagnostic #   140 VA4ZLTHD
(PID.TID 0000.0001) SETDIAG: Allocate 40 x  1 Levels for Diagnostic #   145 VAHDSMAG
(PID.TID 0000.0001) SETDIAG: Allocate 40 x  1 Levels for Diagnostic #   146 VA4DSMAG
(PID.TID 0000.0001) SETDIAG: Allocate 40 x  1 Levels for Diagnostic #   143 VAHZSMAG
(PID.TID 0000.0001) SETDIAG: Allocate 40 x  1 Levels for Diagnostic #   144 VA4ZSMAG
(PID.TID 0000.0001)   space allocated for all diagnostics:    1160 levels
(PID.TID 0000.0001) DIAGNOSTICS_SET_POINTERS: Set levels for Outp.Stream: momDiag
(PID.TID 0000.0001)  Levels:       1.   2.   3.   4.   5.   6.   7.   8.   9.  10.  11.  12.  13.  14.  15.  16.  17.  18.  19.  20.
(PID.TID 0000.0001)  Levels:      21.  22.  23.  24.  25.  26.  27.  28.  29.  30.  31.  32.  33.  34.  35.  36.  37.  38.  39.  40.
(PID.TID 0000.0001) DIAGNOSTICS_SET_POINTERS: Set levels for Outp.Stream: viscDiag
(PID.TID 0000.0001)  Levels:       1.   2.   3.   4.   5.   6.   7.   8.   9.  10.  11.  12.  13.  14.  15.  16.  17.  18.  19.  20.
(PID.TID 0000.0001)  Levels:      21.  22.  23.  24.  25.  26.  27.  28.  29.  30.  31.  32.  33.  34.  35.  36.  37.  38.  39.  40.
(PID.TID 0000.0001) DIAGNOSTICS_SET_POINTERS: done
(PID.TID 0000.0001) ------------------------------------------------------------
(PID.TID 0000.0001) DIAGSTATS_SET_REGIONS: define no region
(PID.TID 0000.0001) ------------------------------------------------------------
(PID.TID 0000.0001)   space allocated for all stats-diags:       0 levels
(PID.TID 0000.0001) DIAGSTATS_SET_POINTERS: done
(PID.TID 0000.0001) ------------------------------------------------------------
(PID.TID 0000.0001) %MON fCori_max                    =   7.2900000000000E-05
(PID.TID 0000.0001) %MON fCori_min                    =   7.2900000000000E-05
(PID.TID 0000.0001) %MON fCori_mean                   =   7.2900000000000E-05
(PID.TID 0000.0001) %MON fCori_sd                     =   4.7433845046241E-19
(PID.TID 0000.0001) %MON fCoriG_max                   =   7.2900000000000E-05
(PID.TID 0000.0001) %MON fCoriG_min                   =   7.2900000000000E-05
(PID.TID 0000.0001) %MON fCoriG_mean                  =   7.2900000000000E-05
(PID.TID 0000.0001) %MON fCoriG_sd                    =   4.7433845046241E-19
(PID.TID 0000.0001) %MON fCoriCos_max                 =   0.0000000000000E+00
(PID.TID 0000.0001) %MON fCoriCos_min                 =   0.0000000000000E+00
(PID.TID 0000.0001) %MON fCoriCos_mean                =   0.0000000000000E+00
(PID.TID 0000.0001) %MON fCoriCos_sd                  =   0.0000000000000E+00
(PID.TID 0000.0001) INI_CG2D: CG2D normalisation factor =  5.0000000000000001E-03
(PID.TID 0000.0001) 
(PID.TID 0000.0001) // =======================================================
(PID.TID 0000.0001) // Model configuration
(PID.TID 0000.0001) // =======================================================
(PID.TID 0000.0001) //
(PID.TID 0000.0001) // "Physical" paramters ( PARM01 in namelist )
(PID.TID 0000.0001) //
(PID.TID 0000.0001) buoyancyRelation = /* Type of relation to get Buoyancy */
(PID.TID 0000.0001)               'OCEANIC'
(PID.TID 0000.0001)     ;
(PID.TID 0000.0001) fluidIsAir   =  /* fluid major constituent is Air */
(PID.TID 0000.0001)                   F
(PID.TID 0000.0001)     ;
(PID.TID 0000.0001) fluidIsWater =  /* fluid major constituent is Water */
(PID.TID 0000.0001)                   T
(PID.TID 0000.0001)     ;
(PID.TID 0000.0001) usingPCoords =  /* use p (or p*) vertical coordinate */
(PID.TID 0000.0001)                   F
(PID.TID 0000.0001)     ;
(PID.TID 0000.0001) usingZCoords =  /* use z (or z*) vertical coordinate */
(PID.TID 0000.0001)                   T
(PID.TID 0000.0001)     ;
(PID.TID 0000.0001) tRef =   /* Reference temperature profile ( oC or K ) */
(PID.TID 0000.0001)    40 @  2.000000000000000E+01              /* K =  1: 40 */
(PID.TID 0000.0001)     ;
(PID.TID 0000.0001) sRef =   /* Reference salinity profile ( psu ) */
(PID.TID 0000.0001)    40 @  3.000000000000000E+01              /* K =  1: 40 */
(PID.TID 0000.0001)     ;
(PID.TID 0000.0001) useStrainTensionVisc= /* Use StrainTension Form of Viscous Operator */
(PID.TID 0000.0001)                   F
(PID.TID 0000.0001)     ;
(PID.TID 0000.0001) useVariableVisc = /* Use variable horizontal viscosity */
(PID.TID 0000.0001)                   T
(PID.TID 0000.0001)     ;
(PID.TID 0000.0001) useHarmonicVisc = /* Use harmonic horizontal viscosity */
(PID.TID 0000.0001)                   T
(PID.TID 0000.0001)     ;
(PID.TID 0000.0001) useBiharmonicVisc= /* Use biharmonic horiz.  viscosity */
(PID.TID 0000.0001)                   F
(PID.TID 0000.0001)     ;
(PID.TID 0000.0001) useSmag3D = /* Use isotropic 3-D Smagorinsky viscosity */
(PID.TID 0000.0001)                   F
(PID.TID 0000.0001)     ;
(PID.TID 0000.0001) viscAh  =   /* Lateral harmonic viscosity ( m^2/s ) */
(PID.TID 0000.0001)                 0.000000000000000E+00
(PID.TID 0000.0001)     ;
(PID.TID 0000.0001) viscAhMax = /* Maximum lateral harmonic viscosity ( m^2/s ) */
(PID.TID 0000.0001)                 1.000000000000000E+21
(PID.TID 0000.0001)     ;
(PID.TID 0000.0001) viscAhGrid = /* Grid dependent lateral harmonic viscosity ( non-dim. ) */
(PID.TID 0000.0001)                 0.000000000000000E+00
(PID.TID 0000.0001)     ;
(PID.TID 0000.0001) useFullLeith = /* Use Full Form of Leith Viscosity on/off flag*/
(PID.TID 0000.0001)                   F
(PID.TID 0000.0001)     ;
(PID.TID 0000.0001) useAreaViscLength = /* Use area for visc length instead of geom. mean*/
(PID.TID 0000.0001)                   F
(PID.TID 0000.0001)     ;
(PID.TID 0000.0001) viscC2leith = /* Leith harmonic visc. factor (on grad(vort),non-dim.) */
(PID.TID 0000.0001)                 1.850000000000000E+00
(PID.TID 0000.0001)     ;
(PID.TID 0000.0001) viscC2leithD = /* Leith harmonic viscosity factor (on grad(div),non-dim.)*/
(PID.TID 0000.0001)                 1.850000000000000E+00
(PID.TID 0000.0001)     ;
(PID.TID 0000.0001) viscC2smag = /* Smagorinsky harmonic viscosity factor (non-dim.) */
(PID.TID 0000.0001)                 1.000000000000000E+00
(PID.TID 0000.0001)     ;
(PID.TID 0000.0001) viscA4  =   /* Lateral biharmonic viscosity ( m^4/s ) */
(PID.TID 0000.0001)                 0.000000000000000E+00
(PID.TID 0000.0001)     ;
(PID.TID 0000.0001) viscA4Max = /* Maximum biharmonic viscosity ( m^2/s ) */
(PID.TID 0000.0001)                 1.000000000000000E+21
(PID.TID 0000.0001)     ;
(PID.TID 0000.0001) viscA4Grid = /* Grid dependent biharmonic viscosity ( non-dim. ) */
(PID.TID 0000.0001)                 0.000000000000000E+00
(PID.TID 0000.0001)     ;
(PID.TID 0000.0001) viscC4leith = /* Leith biharm viscosity factor (on grad(vort), non-dim.)*/
(PID.TID 0000.0001)                 0.000000000000000E+00
(PID.TID 0000.0001)     ;
(PID.TID 0000.0001) viscC4leithD = /* Leith biharm viscosity factor (on grad(div), non-dim.) */
(PID.TID 0000.0001)                 0.000000000000000E+00
(PID.TID 0000.0001)     ;
(PID.TID 0000.0001) viscC4Smag = /* Smagorinsky biharm viscosity factor (non-dim) */
(PID.TID 0000.0001)                 0.000000000000000E+00
(PID.TID 0000.0001)     ;
(PID.TID 0000.0001) no_slip_sides =  /* Viscous BCs: No-slip sides */
(PID.TID 0000.0001)                   F
(PID.TID 0000.0001)     ;
(PID.TID 0000.0001) sideDragFactor = /* side-drag scaling factor (non-dim) */
(PID.TID 0000.0001)                 2.000000000000000E+00
(PID.TID 0000.0001)     ;
(PID.TID 0000.0001) viscArNr = /* vertical profile of vertical viscosity ( m^2/s )*/
(PID.TID 0000.0001)    40 @  5.000000000000000E-05              /* K =  1: 40 */
(PID.TID 0000.0001)     ;
(PID.TID 0000.0001) no_slip_bottom =  /* Viscous BCs: No-slip bottom */
(PID.TID 0000.0001)                   F
(PID.TID 0000.0001)     ;
(PID.TID 0000.0001) bottomDragLinear = /* linear bottom-drag coefficient ( m/s ) */
(PID.TID 0000.0001)                 0.000000000000000E+00
(PID.TID 0000.0001)     ;
(PID.TID 0000.0001) bottomDragQuadratic = /* quadratic bottom-drag coefficient (-) */
(PID.TID 0000.0001)                 0.000000000000000E+00
(PID.TID 0000.0001)     ;
(PID.TID 0000.0001) diffKhT =   /* Laplacian diffusion of heat laterally ( m^2/s ) */
(PID.TID 0000.0001)                 0.000000000000000E+00
(PID.TID 0000.0001)     ;
(PID.TID 0000.0001) diffK4T =   /* Biharmonic diffusion of heat laterally ( m^4/s ) */
(PID.TID 0000.0001)                 0.000000000000000E+00
(PID.TID 0000.0001)     ;
(PID.TID 0000.0001) diffKhS =   /* Laplacian diffusion of salt laterally ( m^2/s ) */
(PID.TID 0000.0001)                 0.000000000000000E+00
(PID.TID 0000.0001)     ;
(PID.TID 0000.0001) diffK4S =   /* Biharmonic diffusion of salt laterally ( m^4/s ) */
(PID.TID 0000.0001)                 0.000000000000000E+00
(PID.TID 0000.0001)     ;
(PID.TID 0000.0001) diffKrNrT = /* vertical profile of vertical diffusion of Temp ( m^2/s )*/
(PID.TID 0000.0001)    40 @  0.000000000000000E+00              /* K =  1: 40 */
(PID.TID 0000.0001)     ;
(PID.TID 0000.0001) diffKrNrS = /* vertical profile of vertical diffusion of Salt ( m^2/s )*/
(PID.TID 0000.0001)    40 @  0.000000000000000E+00              /* K =  1: 40 */
(PID.TID 0000.0001)     ;
(PID.TID 0000.0001) diffKrBL79surf = /* Surface diffusion for Bryan and Lewis 79 ( m^2/s ) */
(PID.TID 0000.0001)                 0.000000000000000E+00
(PID.TID 0000.0001)     ;
(PID.TID 0000.0001) diffKrBL79deep = /* Deep diffusion for Bryan and Lewis 1979 ( m^2/s ) */
(PID.TID 0000.0001)                 0.000000000000000E+00
(PID.TID 0000.0001)     ;
(PID.TID 0000.0001) diffKrBL79scl = /* Depth scale for Bryan and Lewis 1979 ( m ) */
(PID.TID 0000.0001)                 2.000000000000000E+02
(PID.TID 0000.0001)     ;
(PID.TID 0000.0001) diffKrBL79Ho = /* Turning depth for Bryan and Lewis 1979 ( m ) */
(PID.TID 0000.0001)                -2.000000000000000E+03
(PID.TID 0000.0001)     ;
(PID.TID 0000.0001) ivdc_kappa = /* Implicit Vertical Diffusivity for Convection ( m^2/s) */
(PID.TID 0000.0001)                 1.000000000000000E+01
(PID.TID 0000.0001)     ;
(PID.TID 0000.0001) hMixCriteria=  /* Criteria for mixed-layer diagnostic */
(PID.TID 0000.0001)                -8.000000000000000E-01
(PID.TID 0000.0001)     ;
(PID.TID 0000.0001) dRhoSmall =  /* Parameter for mixed-layer diagnostic */
(PID.TID 0000.0001)                 1.000000000000000E-06
(PID.TID 0000.0001)     ;
(PID.TID 0000.0001) hMixSmooth=  /* Smoothing parameter for mixed-layer diagnostic */
(PID.TID 0000.0001)                 0.000000000000000E+00
(PID.TID 0000.0001)     ;
(PID.TID 0000.0001) eosType =  /* Type of Equation of State */
(PID.TID 0000.0001)               'LINEAR'
(PID.TID 0000.0001)     ;
(PID.TID 0000.0001) tAlpha = /* Linear EOS thermal expansion coefficient ( 1/oC ) */
(PID.TID 0000.0001)                 2.000000000000000E-04
(PID.TID 0000.0001)     ;
(PID.TID 0000.0001) sBeta  = /* Linear EOS haline contraction coefficient ( 1/psu ) */
(PID.TID 0000.0001)                 0.000000000000000E+00
(PID.TID 0000.0001)     ;
(PID.TID 0000.0001) rhoNil    = /* Reference density for Linear EOS ( kg/m^3 ) */
(PID.TID 0000.0001)                 1.035000000000000E+03
(PID.TID 0000.0001)     ;
(PID.TID 0000.0001) celsius2K = /* 0 degree Celsius converted to Kelvin ( K ) */
(PID.TID 0000.0001)                 2.731500000000000E+02
(PID.TID 0000.0001)     ;
(PID.TID 0000.0001) rhoConst  = /* Reference density (Boussinesq)  ( kg/m^3 ) */
(PID.TID 0000.0001)                 1.035000000000000E+03
(PID.TID 0000.0001)     ;
(PID.TID 0000.0001) rhoFacC = /* normalized Reference density @ cell-Center (-) */
(PID.TID 0000.0001)    40 @  1.000000000000000E+00              /* K =  1: 40 */
(PID.TID 0000.0001)     ;
(PID.TID 0000.0001) rhoFacF = /* normalized Reference density @ W-Interface (-) */
(PID.TID 0000.0001)    41 @  1.000000000000000E+00              /* K =  1: 41 */
(PID.TID 0000.0001)     ;
(PID.TID 0000.0001) rhoConstFresh = /* Fresh-water reference density ( kg/m^3 ) */
(PID.TID 0000.0001)                 1.035000000000000E+03
(PID.TID 0000.0001)     ;
(PID.TID 0000.0001) gravity =   /* Gravitational acceleration ( m/s^2 ) */
(PID.TID 0000.0001)                 9.810000000000000E+00
(PID.TID 0000.0001)     ;
(PID.TID 0000.0001) gBaro =   /* Barotropic gravity ( m/s^2 ) */
(PID.TID 0000.0001)                 9.810000000000000E+00
(PID.TID 0000.0001)     ;
(PID.TID 0000.0001) rotationPeriod =   /* Rotation Period ( s ) */
(PID.TID 0000.0001)                 8.616400000000000E+04
(PID.TID 0000.0001)     ;
(PID.TID 0000.0001) omega =   /* Angular velocity ( rad/s ) */
(PID.TID 0000.0001)                 7.292123516990375E-05
(PID.TID 0000.0001)     ;
(PID.TID 0000.0001) f0 =   /* Reference coriolis parameter ( 1/s ) */
(PID.TID 0000.0001)                 7.290000000000000E-05
(PID.TID 0000.0001)     ;
(PID.TID 0000.0001) beta =   /* Beta ( 1/(m.s) ) */
(PID.TID 0000.0001)                 0.000000000000000E+00
(PID.TID 0000.0001)     ;
(PID.TID 0000.0001) fPrime =   /* Second coriolis parameter ( 1/s ) */
(PID.TID 0000.0001)                 0.000000000000000E+00
(PID.TID 0000.0001)     ;
(PID.TID 0000.0001) rigidLid =   /* Rigid lid on/off flag */
(PID.TID 0000.0001)                   F
(PID.TID 0000.0001)     ;
(PID.TID 0000.0001) implicitFreeSurface =   /* Implicit free surface on/off flag */
(PID.TID 0000.0001)                   T
(PID.TID 0000.0001)     ;
(PID.TID 0000.0001) freeSurfFac =   /* Implicit free surface factor */
(PID.TID 0000.0001)                 1.000000000000000E+00
(PID.TID 0000.0001)     ;
(PID.TID 0000.0001) implicSurfPress =  /* Surface Pressure implicit factor (0-1)*/
(PID.TID 0000.0001)                 1.000000000000000E+00
(PID.TID 0000.0001)     ;
(PID.TID 0000.0001) implicDiv2Dflow =  /* Barot. Flow Div. implicit factor (0-1)*/
(PID.TID 0000.0001)                 1.000000000000000E+00
(PID.TID 0000.0001)     ;
(PID.TID 0000.0001) uniformLin_PhiSurf = /* use uniform Bo_surf on/off flag*/
(PID.TID 0000.0001)                   T
(PID.TID 0000.0001)     ;
(PID.TID 0000.0001) uniformFreeSurfLev = /* free-surface level-index is uniform */
(PID.TID 0000.0001)                   T
(PID.TID 0000.0001)     ;
(PID.TID 0000.0001) hFacMin =   /* minimum partial cell factor (hFac) */
(PID.TID 0000.0001)                 1.000000000000000E+00
(PID.TID 0000.0001)     ;
(PID.TID 0000.0001) hFacMinDr = /* minimum partial cell thickness ( m) */
(PID.TID 0000.0001)                 0.000000000000000E+00
(PID.TID 0000.0001)     ;
(PID.TID 0000.0001) exactConserv =  /* Exact Volume Conservation on/off flag*/
(PID.TID 0000.0001)                   F
(PID.TID 0000.0001)     ;
(PID.TID 0000.0001) linFSConserveTr = /* Tracer correction for Lin Free Surface on/off flag*/
(PID.TID 0000.0001)                   F
(PID.TID 0000.0001)     ;
(PID.TID 0000.0001) nonlinFreeSurf = /* Non-linear Free Surf. options (-1,0,1,2,3)*/
(PID.TID 0000.0001)                       0
(PID.TID 0000.0001)      -1,0= Off ; 1,2,3= On, 2=+rescale gU,gV, 3=+update cg2d solv.
(PID.TID 0000.0001)     ;
(PID.TID 0000.0001) hFacInf =   /* lower threshold for hFac (nonlinFreeSurf only)*/
(PID.TID 0000.0001)                 2.000000000000000E-01
(PID.TID 0000.0001)     ;
(PID.TID 0000.0001) hFacSup =   /* upper threshold for hFac (nonlinFreeSurf only)*/
(PID.TID 0000.0001)                 2.000000000000000E+00
(PID.TID 0000.0001)     ;
(PID.TID 0000.0001) select_rStar = /* r* Vertical coord. options (=0 r coord.; >0 uses r*)*/
(PID.TID 0000.0001)                       0
(PID.TID 0000.0001)     ;
(PID.TID 0000.0001) useRealFreshWaterFlux = /* Real Fresh Water Flux on/off flag*/
(PID.TID 0000.0001)                   F
(PID.TID 0000.0001)     ;
(PID.TID 0000.0001) temp_EvPrRn = /* Temp. of Evap/Prec/R (UNSET=use local T)(oC)*/
(PID.TID 0000.0001)                 1.234567000000000E+05
(PID.TID 0000.0001)     ;
(PID.TID 0000.0001) salt_EvPrRn = /* Salin. of Evap/Prec/R (UNSET=use local S)(psu)*/
(PID.TID 0000.0001)                 0.000000000000000E+00
(PID.TID 0000.0001)     ;
(PID.TID 0000.0001) selectAddFluid = /* option for mass source/sink of fluid (=0: off) */
(PID.TID 0000.0001)                       0
(PID.TID 0000.0001)     ;
(PID.TID 0000.0001) temp_addMass = /* Temp. of addMass array (UNSET=use local T)(oC)*/
(PID.TID 0000.0001)                 1.234567000000000E+05
(PID.TID 0000.0001)     ;
(PID.TID 0000.0001) salt_addMass = /* Salin. of addMass array (UNSET=use local S)(psu)*/
(PID.TID 0000.0001)                 0.000000000000000E+00
(PID.TID 0000.0001)     ;
(PID.TID 0000.0001) convertFW2Salt = /* convert F.W. Flux to Salt Flux (-1=use local S)(psu)*/
(PID.TID 0000.0001)                 3.500000000000000E+01
(PID.TID 0000.0001)     ;
(PID.TID 0000.0001) use3Dsolver = /* use 3-D pressure solver on/off flag */
(PID.TID 0000.0001)                   F
(PID.TID 0000.0001)     ;
(PID.TID 0000.0001) nonHydrostatic =  /* Non-Hydrostatic on/off flag */
(PID.TID 0000.0001)                   F
(PID.TID 0000.0001)     ;
(PID.TID 0000.0001) nh_Am2 = /* Non-Hydrostatic terms scaling factor */
(PID.TID 0000.0001)                 1.000000000000000E+00
(PID.TID 0000.0001)     ;
(PID.TID 0000.0001) implicitNHPress = /* Non-Hyd Pressure implicit factor (0-1)*/
(PID.TID 0000.0001)                 1.000000000000000E+00
(PID.TID 0000.0001)     ;
(PID.TID 0000.0001) selectNHfreeSurf = /* Non-Hyd (free-)Surface option */
(PID.TID 0000.0001)                       0
(PID.TID 0000.0001)     ;
(PID.TID 0000.0001) quasiHydrostatic = /* Quasi-Hydrostatic on/off flag */
(PID.TID 0000.0001)                   F
(PID.TID 0000.0001)     ;
(PID.TID 0000.0001) calc_wVelocity = /* vertical velocity calculation on/off flag */
(PID.TID 0000.0001)                   T
(PID.TID 0000.0001)     ;
(PID.TID 0000.0001) momStepping =  /* Momentum equation on/off flag */
(PID.TID 0000.0001)                   T
(PID.TID 0000.0001)     ;
(PID.TID 0000.0001) vectorInvariantMomentum= /* Vector-Invariant Momentum on/off */
(PID.TID 0000.0001)                   F
(PID.TID 0000.0001)     ;
(PID.TID 0000.0001) momAdvection =  /* Momentum advection on/off flag */
(PID.TID 0000.0001)                   T
(PID.TID 0000.0001)     ;
(PID.TID 0000.0001) momViscosity =  /* Momentum viscosity on/off flag */
(PID.TID 0000.0001)                   T
(PID.TID 0000.0001)     ;
(PID.TID 0000.0001) momImplVertAdv= /* Momentum implicit vert. advection on/off*/
(PID.TID 0000.0001)                   F
(PID.TID 0000.0001)     ;
(PID.TID 0000.0001) implicitViscosity = /* Implicit viscosity on/off flag */
(PID.TID 0000.0001)                   T
(PID.TID 0000.0001)     ;
(PID.TID 0000.0001) metricTerms =  /* metric-Terms on/off flag */
(PID.TID 0000.0001)                   F
(PID.TID 0000.0001)     ;
(PID.TID 0000.0001) useNHMTerms = /* Non-Hydrostatic Metric-Terms on/off */
(PID.TID 0000.0001)                   F
(PID.TID 0000.0001)     ;
(PID.TID 0000.0001) selectCoriMap = /* Coriolis Map options (0,1,2,3)*/
(PID.TID 0000.0001)                       1
(PID.TID 0000.0001)     0= f-Plane ; 1= Beta-Plane ; 2= Spherical ; 3= read from file
(PID.TID 0000.0001)     ;
(PID.TID 0000.0001) use3dCoriolis = /* 3-D Coriolis on/off flag */
(PID.TID 0000.0001)                   F
(PID.TID 0000.0001)     ;
(PID.TID 0000.0001) useCoriolis =  /* Coriolis on/off flag */
(PID.TID 0000.0001)                   T
(PID.TID 0000.0001)     ;
(PID.TID 0000.0001) useCDscheme =  /* CD scheme on/off flag */
(PID.TID 0000.0001)                   F
(PID.TID 0000.0001)     ;
(PID.TID 0000.0001) useEnergyConservingCoriolis= /* Flx-Form Coriolis scheme flag */
(PID.TID 0000.0001)                   F
(PID.TID 0000.0001)     ;
(PID.TID 0000.0001) useJamartWetPoints= /* Coriolis WetPoints method flag */
(PID.TID 0000.0001)                   T
(PID.TID 0000.0001)     ;
(PID.TID 0000.0001) useJamartMomAdv= /* V.I Non-linear terms Jamart flag */
(PID.TID 0000.0001)                   F
(PID.TID 0000.0001)     ;
(PID.TID 0000.0001) useAbsVorticity= /* V.I Works with f+zeta in Coriolis */
(PID.TID 0000.0001)                   F
(PID.TID 0000.0001)     ;
(PID.TID 0000.0001) selectVortScheme= /* V.I Scheme selector for Vorticity-Term */
(PID.TID 0000.0001)               123456789
(PID.TID 0000.0001)    = 0 : enstrophy (Shallow-Water Eq.) conserving scheme by Sadourny, JAS 75
(PID.TID 0000.0001)    = 1 : same as 0 with modified hFac
(PID.TID 0000.0001)    = 2 : energy conserving scheme (used by Sadourny in JAS 75 paper)
(PID.TID 0000.0001)    = 3 : energy (general) and enstrophy (2D, nonDiv.) conserving scheme
(PID.TID 0000.0001)          from Sadourny (Burridge & Haseler, ECMWF Rep.4, 1977)
(PID.TID 0000.0001)     ;
(PID.TID 0000.0001) upwindVorticity= /* V.I Upwind bias vorticity flag */
(PID.TID 0000.0001)                   F
(PID.TID 0000.0001)     ;
(PID.TID 0000.0001) highOrderVorticity= /* V.I High order vort. advect. flag */
(PID.TID 0000.0001)                   F
(PID.TID 0000.0001)     ;
(PID.TID 0000.0001) upwindShear= /* V.I Upwind vertical Shear advection flag */
(PID.TID 0000.0001)                   F
(PID.TID 0000.0001)     ;
(PID.TID 0000.0001) selectKEscheme= /* V.I Kinetic Energy scheme selector */
(PID.TID 0000.0001)                       0
(PID.TID 0000.0001)     ;
(PID.TID 0000.0001) momForcing =  /* Momentum forcing on/off flag */
(PID.TID 0000.0001)                   T
(PID.TID 0000.0001)     ;
(PID.TID 0000.0001) momPressureForcing =  /* Momentum pressure term on/off flag */
(PID.TID 0000.0001)                   T
(PID.TID 0000.0001)     ;
(PID.TID 0000.0001) implicitIntGravWave= /* Implicit Internal Gravity Wave flag */
(PID.TID 0000.0001)                   F
(PID.TID 0000.0001)     ;
(PID.TID 0000.0001) staggerTimeStep =    /* Stagger time stepping on/off flag */
(PID.TID 0000.0001)                   T
(PID.TID 0000.0001)     ;
(PID.TID 0000.0001) doResetHFactors = /* reset thickness factors @ each time-step */
(PID.TID 0000.0001)                   F
(PID.TID 0000.0001)     ;
(PID.TID 0000.0001) multiDimAdvection =  /* enable/disable Multi-Dim Advection */
(PID.TID 0000.0001)                   T
(PID.TID 0000.0001)     ;
(PID.TID 0000.0001) useMultiDimAdvec =   /* Multi-Dim Advection is/is-not used */
(PID.TID 0000.0001)                   T
(PID.TID 0000.0001)     ;
(PID.TID 0000.0001) implicitDiffusion = /* Implicit Diffusion on/off flag */
(PID.TID 0000.0001)                   T
(PID.TID 0000.0001)     ;
(PID.TID 0000.0001) tempStepping =  /* Temperature equation on/off flag */
(PID.TID 0000.0001)                   T
(PID.TID 0000.0001)     ;
(PID.TID 0000.0001) tempAdvection = /* Temperature advection on/off flag */
(PID.TID 0000.0001)                   T
(PID.TID 0000.0001)     ;
(PID.TID 0000.0001) tempImplVertAdv = /* Temp. implicit vert. advection on/off */
(PID.TID 0000.0001)                   F
(PID.TID 0000.0001)     ;
(PID.TID 0000.0001) tempForcing  =  /* Temperature forcing on/off flag */
(PID.TID 0000.0001)                   T
(PID.TID 0000.0001)     ;
(PID.TID 0000.0001) doThetaClimRelax = /* apply SST relaxation on/off flag */
(PID.TID 0000.0001)                   F
(PID.TID 0000.0001)     ;
(PID.TID 0000.0001) tempIsActiveTr = /* Temp. is a dynamically Active Tracer */
(PID.TID 0000.0001)                   T
(PID.TID 0000.0001)     ;
(PID.TID 0000.0001) saltStepping =  /* Salinity equation on/off flag */
(PID.TID 0000.0001)                   T
(PID.TID 0000.0001)     ;
(PID.TID 0000.0001) saltAdvection = /* Salinity advection on/off flag */
(PID.TID 0000.0001)                   T
(PID.TID 0000.0001)     ;
(PID.TID 0000.0001) saltImplVertAdv = /* Sali. implicit vert. advection on/off */
(PID.TID 0000.0001)                   F
(PID.TID 0000.0001)     ;
(PID.TID 0000.0001) saltForcing  =  /* Salinity forcing on/off flag */
(PID.TID 0000.0001)                   T
(PID.TID 0000.0001)     ;
(PID.TID 0000.0001) doSaltClimRelax = /* apply SSS relaxation on/off flag */
(PID.TID 0000.0001)                   F
(PID.TID 0000.0001)     ;
(PID.TID 0000.0001) saltIsActiveTr = /* Salt  is a dynamically Active Tracer */
(PID.TID 0000.0001)                   F
(PID.TID 0000.0001)     ;
(PID.TID 0000.0001)  readBinaryPrec = /* Precision used for reading binary files */
(PID.TID 0000.0001)                      64
(PID.TID 0000.0001)     ;
(PID.TID 0000.0001) writeBinaryPrec = /* Precision used for writing binary files */
(PID.TID 0000.0001)                      64
(PID.TID 0000.0001)     ;
(PID.TID 0000.0001)  globalFiles = /* write "global" (=not per tile) files */
(PID.TID 0000.0001)                   F
(PID.TID 0000.0001)     ;
(PID.TID 0000.0001)  useSingleCpuIO = /* only master MPI process does I/O */
(PID.TID 0000.0001)                   F
(PID.TID 0000.0001)     ;
(PID.TID 0000.0001)  useSingleCpuInput = /* only master process reads input */
(PID.TID 0000.0001)                   F
(PID.TID 0000.0001)     ;
(PID.TID 0000.0001) /* debLev[*]  : level of debug & auxiliary message printing */
(PID.TID 0000.0001) debLevZero =  0 ; /* level of disabled aux. msg printing */
(PID.TID 0000.0001)    debLevA =  1 ; /* level of minimum  aux. msg printing */
(PID.TID 0000.0001)    debLevB =  2 ; /* level of low aux. print (report read-file opening)*/
(PID.TID 0000.0001)    debLevC =  3 ; /* level of moderate debug prt (most pkgs debug msg) */
(PID.TID 0000.0001)    debLevD =  4 ; /* level of enhanced debug prt (add DEBUG_STATS prt) */
(PID.TID 0000.0001)    debLevE =  5 ; /* level of extensive debug printing */
(PID.TID 0000.0001) debugLevel =  /* select debug printing level */
(PID.TID 0000.0001)                       2
(PID.TID 0000.0001)     ;
(PID.TID 0000.0001) //
(PID.TID 0000.0001) // Elliptic solver(s) paramters ( PARM02 in namelist )
(PID.TID 0000.0001) //
(PID.TID 0000.0001) cg2dMaxIters =   /* Upper limit on 2d con. grad iterations  */
(PID.TID 0000.0001)                    1000
(PID.TID 0000.0001)     ;
(PID.TID 0000.0001) cg2dChkResFreq =   /* 2d con. grad convergence test frequency */
(PID.TID 0000.0001)                       1
(PID.TID 0000.0001)     ;
(PID.TID 0000.0001) cg2dUseMinResSol= /* use cg2d last-iter(=0) / min-resid.(=1) solution */
(PID.TID 0000.0001)                       0
(PID.TID 0000.0001)     ;
(PID.TID 0000.0001) cg2dTargetResidual =   /* 2d con. grad target residual  */
(PID.TID 0000.0001)                 9.999999999999999E-12
(PID.TID 0000.0001)     ;
(PID.TID 0000.0001) cg2dTargetResWunit =   /* CG2d target residual [W units] */
(PID.TID 0000.0001)                -1.000000000000000E+00
(PID.TID 0000.0001)     ;
(PID.TID 0000.0001) cg2dPreCondFreq =   /* Freq. for updating cg2d preconditioner */
(PID.TID 0000.0001)                       1
(PID.TID 0000.0001)     ;
(PID.TID 0000.0001) useSRCGSolver =  /* use single reduction CG solver(s) */
(PID.TID 0000.0001)                   F
(PID.TID 0000.0001)     ;
(PID.TID 0000.0001) printResidualFreq = /* Freq. for printing CG residual */
(PID.TID 0000.0001)                       0
(PID.TID 0000.0001)     ;
(PID.TID 0000.0001) //
(PID.TID 0000.0001) // Time stepping paramters ( PARM03 in namelist )
(PID.TID 0000.0001) //
(PID.TID 0000.0001) deltaTMom =   /* Momentum equation timestep ( s ) */
(PID.TID 0000.0001)                 1.200000000000000E+03
(PID.TID 0000.0001)     ;
(PID.TID 0000.0001) deltaTFreeSurf = /* FreeSurface equation timestep ( s ) */
(PID.TID 0000.0001)                 1.200000000000000E+03
(PID.TID 0000.0001)     ;
(PID.TID 0000.0001) dTtracerLev =  /* Tracer equation timestep ( s ) */
(PID.TID 0000.0001)    40 @  1.200000000000000E+03              /* K =  1: 40 */
(PID.TID 0000.0001)     ;
(PID.TID 0000.0001) deltaTClock  =   /* Model clock timestep ( s ) */
(PID.TID 0000.0001)                 1.200000000000000E+03
(PID.TID 0000.0001)     ;
(PID.TID 0000.0001) cAdjFreq =   /* Convective adjustment interval ( s ) */
(PID.TID 0000.0001)                 0.000000000000000E+00
(PID.TID 0000.0001)     ;
(PID.TID 0000.0001) momForcingOutAB = /* =1: take Momentum Forcing out of Adams-Bash. stepping */
(PID.TID 0000.0001)                       0
(PID.TID 0000.0001)     ;
(PID.TID 0000.0001) tracForcingOutAB = /* =1: take T,S,pTr Forcing out of Adams-Bash. stepping */
(PID.TID 0000.0001)                       0
(PID.TID 0000.0001)     ;
(PID.TID 0000.0001) momDissip_In_AB = /* put Dissipation Tendency in Adams-Bash. stepping */
(PID.TID 0000.0001)                   T
(PID.TID 0000.0001)     ;
(PID.TID 0000.0001) doAB_onGtGs = /* apply AB on Tendencies (rather than on T,S)*/
(PID.TID 0000.0001)                   T
(PID.TID 0000.0001)     ;
(PID.TID 0000.0001) abEps =   /* Adams-Bashforth-2 stabilizing weight */
(PID.TID 0000.0001)                 1.000000000000000E-02
(PID.TID 0000.0001)     ;
(PID.TID 0000.0001) pickupStrictlyMatch= /* stop if pickup do not strictly match */
(PID.TID 0000.0001)                   T
(PID.TID 0000.0001)     ;
(PID.TID 0000.0001) nIter0   =   /* Run starting timestep number */
(PID.TID 0000.0001)                       0
(PID.TID 0000.0001)     ;
(PID.TID 0000.0001) nTimeSteps = /* Number of timesteps */
(PID.TID 0000.0001)                      12
(PID.TID 0000.0001)     ;
(PID.TID 0000.0001) nEndIter =   /* Run ending timestep number */
(PID.TID 0000.0001)                      12
(PID.TID 0000.0001)     ;
(PID.TID 0000.0001) baseTime =   /* Model base time ( s ) */
(PID.TID 0000.0001)                 0.000000000000000E+00
(PID.TID 0000.0001)     ;
(PID.TID 0000.0001) startTime =  /* Run start time ( s ) */
(PID.TID 0000.0001)                 0.000000000000000E+00
(PID.TID 0000.0001)     ;
(PID.TID 0000.0001) endTime  =   /* Integration ending time ( s ) */
(PID.TID 0000.0001)                 1.440000000000000E+04
(PID.TID 0000.0001)     ;
(PID.TID 0000.0001) pChkPtFreq = /* Permanent restart/pickup file interval ( s ) */
(PID.TID 0000.0001)                 0.000000000000000E+00
(PID.TID 0000.0001)     ;
(PID.TID 0000.0001) chkPtFreq  = /* Rolling restart/pickup file interval ( s ) */
(PID.TID 0000.0001)                 0.000000000000000E+00
(PID.TID 0000.0001)     ;
(PID.TID 0000.0001) pickup_write_mdsio =   /* Model IO flag. */
(PID.TID 0000.0001)                   T
(PID.TID 0000.0001)     ;
(PID.TID 0000.0001) pickup_read_mdsio =   /* Model IO flag. */
(PID.TID 0000.0001)                   T
(PID.TID 0000.0001)     ;
(PID.TID 0000.0001) pickup_write_mnc =   /* Model IO flag. */
(PID.TID 0000.0001)                   F
(PID.TID 0000.0001)     ;
(PID.TID 0000.0001) pickup_read_mnc =   /* Model IO flag. */
(PID.TID 0000.0001)                   F
(PID.TID 0000.0001)     ;
(PID.TID 0000.0001) pickup_write_immed =   /* Model IO flag. */
(PID.TID 0000.0001)                   F
(PID.TID 0000.0001)     ;
(PID.TID 0000.0001) writePickupAtEnd =   /* Model IO flag. */
(PID.TID 0000.0001)                   T
(PID.TID 0000.0001)     ;
(PID.TID 0000.0001) dumpFreq =   /* Model state write out interval ( s ). */
(PID.TID 0000.0001)                 0.000000000000000E+00
(PID.TID 0000.0001)     ;
(PID.TID 0000.0001) dumpInitAndLast= /* write out Initial & Last iter. model state */
(PID.TID 0000.0001)                   T
(PID.TID 0000.0001)     ;
(PID.TID 0000.0001) snapshot_mdsio =   /* Model IO flag. */
(PID.TID 0000.0001)                   F
(PID.TID 0000.0001)     ;
(PID.TID 0000.0001) snapshot_mnc =   /* Model IO flag. */
(PID.TID 0000.0001)                   T
(PID.TID 0000.0001)     ;
(PID.TID 0000.0001) monitorFreq =   /* Monitor output interval ( s ). */
(PID.TID 0000.0001)                 1.200000000000000E+03
(PID.TID 0000.0001)     ;
(PID.TID 0000.0001) monitorSelect = /* select group of variables to monitor */
(PID.TID 0000.0001)                       2
(PID.TID 0000.0001)     ;
(PID.TID 0000.0001) monitor_stdio =   /* Model IO flag. */
(PID.TID 0000.0001)                   T
(PID.TID 0000.0001)     ;
(PID.TID 0000.0001) monitor_mnc =   /* Model IO flag. */
(PID.TID 0000.0001)                   F
(PID.TID 0000.0001)     ;
(PID.TID 0000.0001) externForcingPeriod =   /* forcing period (s) */
(PID.TID 0000.0001)                 0.000000000000000E+00
(PID.TID 0000.0001)     ;
(PID.TID 0000.0001) externForcingCycle =   /* period of the cyle (s). */
(PID.TID 0000.0001)                 0.000000000000000E+00
(PID.TID 0000.0001)     ;
(PID.TID 0000.0001) tauThetaClimRelax =   /* relaxation time scale (s) */
(PID.TID 0000.0001)                 0.000000000000000E+00
(PID.TID 0000.0001)     ;
(PID.TID 0000.0001) tauSaltClimRelax =   /* relaxation time scale (s) */
(PID.TID 0000.0001)                 0.000000000000000E+00
(PID.TID 0000.0001)     ;
(PID.TID 0000.0001) latBandClimRelax =   /* max. Lat. where relaxation */
(PID.TID 0000.0001)                 7.800000000000000E+04
(PID.TID 0000.0001)     ;
(PID.TID 0000.0001) //
(PID.TID 0000.0001) // Gridding paramters ( PARM04 in namelist )
(PID.TID 0000.0001) //
(PID.TID 0000.0001) usingCartesianGrid = /* Cartesian coordinates flag ( True/False ) */
(PID.TID 0000.0001)                   T
(PID.TID 0000.0001)     ;
(PID.TID 0000.0001) usingCylindricalGrid = /* Cylindrical coordinates flag ( True/False ) */
(PID.TID 0000.0001)                   F
(PID.TID 0000.0001)     ;
(PID.TID 0000.0001) usingSphericalPolarGrid = /* Spherical coordinates flag ( True/False ) */
(PID.TID 0000.0001)                   F
(PID.TID 0000.0001)     ;
(PID.TID 0000.0001) usingCurvilinearGrid = /* Curvilinear coordinates flag ( True/False ) */
(PID.TID 0000.0001)                   F
(PID.TID 0000.0001)     ;
(PID.TID 0000.0001) selectSigmaCoord = /* Hybrid-Sigma Vert. Coordinate option */
(PID.TID 0000.0001)                       0
(PID.TID 0000.0001)     ;
(PID.TID 0000.0001) Ro_SeaLevel = /* r(1) ( units of r ==  m ) */
(PID.TID 0000.0001)                 0.000000000000000E+00
(PID.TID 0000.0001)     ;
(PID.TID 0000.0001) rSigmaBnd = /* r/sigma transition ( units of r ==  m ) */
(PID.TID 0000.0001)                 1.234567000000000E+05
(PID.TID 0000.0001)     ;
(PID.TID 0000.0001) rkSign =   /* index orientation relative to vertical coordinate */
(PID.TID 0000.0001)                -1.000000000000000E+00
(PID.TID 0000.0001)     ;
(PID.TID 0000.0001) gravitySign = /* gravity orientation relative to vertical coordinate */
(PID.TID 0000.0001)                -1.000000000000000E+00
(PID.TID 0000.0001)     ;
(PID.TID 0000.0001) mass2rUnit = /* convert mass per unit area [kg/m2] to r-units [m] */
(PID.TID 0000.0001)                 9.661835748792270E-04
(PID.TID 0000.0001)     ;
(PID.TID 0000.0001) rUnit2mass = /* convert r-units [m] to mass per unit area [kg/m2] */
(PID.TID 0000.0001)                 1.035000000000000E+03
(PID.TID 0000.0001)     ;
(PID.TID 0000.0001) drC =   /* C spacing ( units of r ) */
(PID.TID 0000.0001)                 2.500000000000000E+00,      /* K =  1 */
(PID.TID 0000.0001)    39 @  5.000000000000000E+00,             /* K =  2: 40 */
(PID.TID 0000.0001)                 2.500000000000000E+00       /* K = 41 */
(PID.TID 0000.0001)     ;
(PID.TID 0000.0001) drF =   /* W spacing ( units of r ) */
(PID.TID 0000.0001)    40 @  5.000000000000000E+00              /* K =  1: 40 */
(PID.TID 0000.0001)     ;
(PID.TID 0000.0001) delX = /* U spacing ( m - cartesian, degrees - spherical ) */
(PID.TID 0000.0001)    50 @  1.000000000000000E+03              /* I =  1: 50 */
(PID.TID 0000.0001)     ;
(PID.TID 0000.0001) delY = /* V spacing ( m - cartesian, degrees - spherical ) */
(PID.TID 0000.0001)    26 @  1.000000000000000E+03              /* J =  1: 26 */
(PID.TID 0000.0001)     ;
(PID.TID 0000.0001) xgOrigin = /* X-axis origin of West  edge (cartesian: m, lat-lon: deg) */
(PID.TID 0000.0001)                 0.000000000000000E+00
(PID.TID 0000.0001)     ;
(PID.TID 0000.0001) ygOrigin = /* Y-axis origin of South edge (cartesian: m, lat-lon: deg) */
(PID.TID 0000.0001)                 0.000000000000000E+00
(PID.TID 0000.0001)     ;
(PID.TID 0000.0001) rSphere =  /* Radius ( ignored - cartesian, m - spherical ) */
(PID.TID 0000.0001)                 6.370000000000000E+06
(PID.TID 0000.0001)     ;
(PID.TID 0000.0001) deepAtmosphere = /* Deep/Shallow Atmosphere flag (True/False) */
(PID.TID 0000.0001)                   F
(PID.TID 0000.0001)     ;
(PID.TID 0000.0001) xC =  /* xC(:,1,:,1) : P-point X coord ( deg. or m if cartesian) */
(PID.TID 0000.0001)                 5.000000000000000E+02,      /* I =  1 */
(PID.TID 0000.0001)                 1.500000000000000E+03,      /* I =  2 */
(PID.TID 0000.0001)                 2.500000000000000E+03,      /* I =  3 */
(PID.TID 0000.0001)                 3.500000000000000E+03,      /* I =  4 */
(PID.TID 0000.0001)                 4.500000000000000E+03,      /* I =  5 */
(PID.TID 0000.0001)                 5.500000000000000E+03,      /* I =  6 */
(PID.TID 0000.0001)                 6.500000000000000E+03,      /* I =  7 */
(PID.TID 0000.0001)                 7.500000000000000E+03,      /* I =  8 */
(PID.TID 0000.0001)                 8.500000000000000E+03,      /* I =  9 */
(PID.TID 0000.0001)                 9.500000000000000E+03,      /* I = 10 */
(PID.TID 0000.0001)                 1.050000000000000E+04,      /* I = 11 */
(PID.TID 0000.0001)                 1.150000000000000E+04,      /* I = 12 */
(PID.TID 0000.0001)                 1.250000000000000E+04,      /* I = 13 */
(PID.TID 0000.0001)                 1.350000000000000E+04,      /* I = 14 */
(PID.TID 0000.0001)                 1.450000000000000E+04,      /* I = 15 */
(PID.TID 0000.0001)                 1.550000000000000E+04,      /* I = 16 */
(PID.TID 0000.0001)                 1.650000000000000E+04,      /* I = 17 */
(PID.TID 0000.0001)                 1.750000000000000E+04,      /* I = 18 */
(PID.TID 0000.0001)                 1.850000000000000E+04,      /* I = 19 */
(PID.TID 0000.0001)                 1.950000000000000E+04,      /* I = 20 */
(PID.TID 0000.0001)                 2.050000000000000E+04,      /* I = 21 */
(PID.TID 0000.0001)                 2.150000000000000E+04,      /* I = 22 */
(PID.TID 0000.0001)                 2.250000000000000E+04,      /* I = 23 */
(PID.TID 0000.0001)                 2.350000000000000E+04,      /* I = 24 */
(PID.TID 0000.0001)                 2.450000000000000E+04,      /* I = 25 */
(PID.TID 0000.0001)                 2.550000000000000E+04,      /* I = 26 */
(PID.TID 0000.0001)                 2.650000000000000E+04,      /* I = 27 */
(PID.TID 0000.0001)                 2.750000000000000E+04,      /* I = 28 */
(PID.TID 0000.0001)                 2.850000000000000E+04,      /* I = 29 */
(PID.TID 0000.0001)                 2.950000000000000E+04,      /* I = 30 */
(PID.TID 0000.0001)                 3.050000000000000E+04,      /* I = 31 */
(PID.TID 0000.0001)                 3.150000000000000E+04,      /* I = 32 */
(PID.TID 0000.0001)                 3.250000000000000E+04,      /* I = 33 */
(PID.TID 0000.0001)                 3.350000000000000E+04,      /* I = 34 */
(PID.TID 0000.0001)                 3.450000000000000E+04,      /* I = 35 */
(PID.TID 0000.0001)                 3.550000000000000E+04,      /* I = 36 */
(PID.TID 0000.0001)                 3.650000000000000E+04,      /* I = 37 */
(PID.TID 0000.0001)                 3.750000000000000E+04,      /* I = 38 */
(PID.TID 0000.0001)                 3.850000000000000E+04,      /* I = 39 */
(PID.TID 0000.0001)                 3.950000000000000E+04,      /* I = 40 */
(PID.TID 0000.0001)                 4.050000000000000E+04,      /* I = 41 */
(PID.TID 0000.0001)                 4.150000000000000E+04,      /* I = 42 */
(PID.TID 0000.0001)                 4.250000000000000E+04,      /* I = 43 */
(PID.TID 0000.0001)                 4.350000000000000E+04,      /* I = 44 */
(PID.TID 0000.0001)                 4.450000000000000E+04,      /* I = 45 */
(PID.TID 0000.0001)                 4.550000000000000E+04,      /* I = 46 */
(PID.TID 0000.0001)                 4.650000000000000E+04,      /* I = 47 */
(PID.TID 0000.0001)                 4.750000000000000E+04,      /* I = 48 */
(PID.TID 0000.0001)                 4.850000000000000E+04,      /* I = 49 */
(PID.TID 0000.0001)                 4.950000000000000E+04       /* I = 50 */
(PID.TID 0000.0001)     ;
(PID.TID 0000.0001) yC =  /* yC(1,:,1,:) : P-point Y coord ( deg. or m if cartesian) */
(PID.TID 0000.0001)                 5.000000000000000E+02,      /* J =  1 */
(PID.TID 0000.0001)                 1.500000000000000E+03,      /* J =  2 */
(PID.TID 0000.0001)                 2.500000000000000E+03,      /* J =  3 */
(PID.TID 0000.0001)                 3.500000000000000E+03,      /* J =  4 */
(PID.TID 0000.0001)                 4.500000000000000E+03,      /* J =  5 */
(PID.TID 0000.0001)                 5.500000000000000E+03,      /* J =  6 */
(PID.TID 0000.0001)                 6.500000000000000E+03,      /* J =  7 */
(PID.TID 0000.0001)                 7.500000000000000E+03,      /* J =  8 */
(PID.TID 0000.0001)                 8.500000000000000E+03,      /* J =  9 */
(PID.TID 0000.0001)                 9.500000000000000E+03,      /* J = 10 */
(PID.TID 0000.0001)                 1.050000000000000E+04,      /* J = 11 */
(PID.TID 0000.0001)                 1.150000000000000E+04,      /* J = 12 */
(PID.TID 0000.0001)                 1.250000000000000E+04,      /* J = 13 */
(PID.TID 0000.0001)                 1.350000000000000E+04,      /* J = 14 */
(PID.TID 0000.0001)                 1.450000000000000E+04,      /* J = 15 */
(PID.TID 0000.0001)                 1.550000000000000E+04,      /* J = 16 */
(PID.TID 0000.0001)                 1.650000000000000E+04,      /* J = 17 */
(PID.TID 0000.0001)                 1.750000000000000E+04,      /* J = 18 */
(PID.TID 0000.0001)                 1.850000000000000E+04,      /* J = 19 */
(PID.TID 0000.0001)                 1.950000000000000E+04,      /* J = 20 */
(PID.TID 0000.0001)                 2.050000000000000E+04,      /* J = 21 */
(PID.TID 0000.0001)                 2.150000000000000E+04,      /* J = 22 */
(PID.TID 0000.0001)                 2.250000000000000E+04,      /* J = 23 */
(PID.TID 0000.0001)                 2.350000000000000E+04,      /* J = 24 */
(PID.TID 0000.0001)                 2.450000000000000E+04,      /* J = 25 */
(PID.TID 0000.0001)                 2.550000000000000E+04       /* J = 26 */
(PID.TID 0000.0001)     ;
(PID.TID 0000.0001) rcoord = /* P-point R coordinate (  units of r ) */
(PID.TID 0000.0001)                -2.500000000000000E+00,      /* K =  1 */
(PID.TID 0000.0001)                -7.500000000000000E+00,      /* K =  2 */
(PID.TID 0000.0001)                -1.250000000000000E+01,      /* K =  3 */
(PID.TID 0000.0001)                -1.750000000000000E+01,      /* K =  4 */
(PID.TID 0000.0001)                -2.250000000000000E+01,      /* K =  5 */
(PID.TID 0000.0001)                -2.750000000000000E+01,      /* K =  6 */
(PID.TID 0000.0001)                -3.250000000000000E+01,      /* K =  7 */
(PID.TID 0000.0001)                -3.750000000000000E+01,      /* K =  8 */
(PID.TID 0000.0001)                -4.250000000000000E+01,      /* K =  9 */
(PID.TID 0000.0001)                -4.750000000000000E+01,      /* K = 10 */
(PID.TID 0000.0001)                -5.250000000000000E+01,      /* K = 11 */
(PID.TID 0000.0001)                -5.750000000000000E+01,      /* K = 12 */
(PID.TID 0000.0001)                -6.250000000000000E+01,      /* K = 13 */
(PID.TID 0000.0001)                -6.750000000000000E+01,      /* K = 14 */
(PID.TID 0000.0001)                -7.250000000000000E+01,      /* K = 15 */
(PID.TID 0000.0001)                -7.750000000000000E+01,      /* K = 16 */
(PID.TID 0000.0001)                -8.250000000000000E+01,      /* K = 17 */
(PID.TID 0000.0001)                -8.750000000000000E+01,      /* K = 18 */
(PID.TID 0000.0001)                -9.250000000000000E+01,      /* K = 19 */
(PID.TID 0000.0001)                -9.750000000000000E+01,      /* K = 20 */
(PID.TID 0000.0001)                -1.025000000000000E+02,      /* K = 21 */
(PID.TID 0000.0001)                -1.075000000000000E+02,      /* K = 22 */
(PID.TID 0000.0001)                -1.125000000000000E+02,      /* K = 23 */
(PID.TID 0000.0001)                -1.175000000000000E+02,      /* K = 24 */
(PID.TID 0000.0001)                -1.225000000000000E+02,      /* K = 25 */
(PID.TID 0000.0001)                -1.275000000000000E+02,      /* K = 26 */
(PID.TID 0000.0001)                -1.325000000000000E+02,      /* K = 27 */
(PID.TID 0000.0001)                -1.375000000000000E+02,      /* K = 28 */
(PID.TID 0000.0001)                -1.425000000000000E+02,      /* K = 29 */
(PID.TID 0000.0001)                -1.475000000000000E+02,      /* K = 30 */
(PID.TID 0000.0001)                -1.525000000000000E+02,      /* K = 31 */
(PID.TID 0000.0001)                -1.575000000000000E+02,      /* K = 32 */
(PID.TID 0000.0001)                -1.625000000000000E+02,      /* K = 33 */
(PID.TID 0000.0001)                -1.675000000000000E+02,      /* K = 34 */
(PID.TID 0000.0001)                -1.725000000000000E+02,      /* K = 35 */
(PID.TID 0000.0001)                -1.775000000000000E+02,      /* K = 36 */
(PID.TID 0000.0001)                -1.825000000000000E+02,      /* K = 37 */
(PID.TID 0000.0001)                -1.875000000000000E+02,      /* K = 38 */
(PID.TID 0000.0001)                -1.925000000000000E+02,      /* K = 39 */
(PID.TID 0000.0001)                -1.975000000000000E+02       /* K = 40 */
(PID.TID 0000.0001)     ;
(PID.TID 0000.0001) rF =   /* W-Interf. R coordinate (  units of r ) */
(PID.TID 0000.0001)                 0.000000000000000E+00,      /* K =  1 */
(PID.TID 0000.0001)                -5.000000000000000E+00,      /* K =  2 */
(PID.TID 0000.0001)                -1.000000000000000E+01,      /* K =  3 */
(PID.TID 0000.0001)                -1.500000000000000E+01,      /* K =  4 */
(PID.TID 0000.0001)                -2.000000000000000E+01,      /* K =  5 */
(PID.TID 0000.0001)                -2.500000000000000E+01,      /* K =  6 */
(PID.TID 0000.0001)                -3.000000000000000E+01,      /* K =  7 */
(PID.TID 0000.0001)                -3.500000000000000E+01,      /* K =  8 */
(PID.TID 0000.0001)                -4.000000000000000E+01,      /* K =  9 */
(PID.TID 0000.0001)                -4.500000000000000E+01,      /* K = 10 */
(PID.TID 0000.0001)                -5.000000000000000E+01,      /* K = 11 */
(PID.TID 0000.0001)                -5.500000000000000E+01,      /* K = 12 */
(PID.TID 0000.0001)                -6.000000000000000E+01,      /* K = 13 */
(PID.TID 0000.0001)                -6.500000000000000E+01,      /* K = 14 */
(PID.TID 0000.0001)                -7.000000000000000E+01,      /* K = 15 */
(PID.TID 0000.0001)                -7.500000000000000E+01,      /* K = 16 */
(PID.TID 0000.0001)                -8.000000000000000E+01,      /* K = 17 */
(PID.TID 0000.0001)                -8.500000000000000E+01,      /* K = 18 */
(PID.TID 0000.0001)                -9.000000000000000E+01,      /* K = 19 */
(PID.TID 0000.0001)                -9.500000000000000E+01,      /* K = 20 */
(PID.TID 0000.0001)                -1.000000000000000E+02,      /* K = 21 */
(PID.TID 0000.0001)                -1.050000000000000E+02,      /* K = 22 */
(PID.TID 0000.0001)                -1.100000000000000E+02,      /* K = 23 */
(PID.TID 0000.0001)                -1.150000000000000E+02,      /* K = 24 */
(PID.TID 0000.0001)                -1.200000000000000E+02,      /* K = 25 */
(PID.TID 0000.0001)                -1.250000000000000E+02,      /* K = 26 */
(PID.TID 0000.0001)                -1.300000000000000E+02,      /* K = 27 */
(PID.TID 0000.0001)                -1.350000000000000E+02,      /* K = 28 */
(PID.TID 0000.0001)                -1.400000000000000E+02,      /* K = 29 */
(PID.TID 0000.0001)                -1.450000000000000E+02,      /* K = 30 */
(PID.TID 0000.0001)                -1.500000000000000E+02,      /* K = 31 */
(PID.TID 0000.0001)                -1.550000000000000E+02,      /* K = 32 */
(PID.TID 0000.0001)                -1.600000000000000E+02,      /* K = 33 */
(PID.TID 0000.0001)                -1.650000000000000E+02,      /* K = 34 */
(PID.TID 0000.0001)                -1.700000000000000E+02,      /* K = 35 */
(PID.TID 0000.0001)                -1.750000000000000E+02,      /* K = 36 */
(PID.TID 0000.0001)                -1.800000000000000E+02,      /* K = 37 */
(PID.TID 0000.0001)                -1.850000000000000E+02,      /* K = 38 */
(PID.TID 0000.0001)                -1.900000000000000E+02,      /* K = 39 */
(PID.TID 0000.0001)                -1.950000000000000E+02,      /* K = 40 */
(PID.TID 0000.0001)                -2.000000000000000E+02       /* K = 41 */
(PID.TID 0000.0001)     ;
(PID.TID 0000.0001) deepFacC = /* deep-model grid factor @ cell-Center (-) */
(PID.TID 0000.0001)    40 @  1.000000000000000E+00              /* K =  1: 40 */
(PID.TID 0000.0001)     ;
(PID.TID 0000.0001) deepFacF = /* deep-model grid factor @ W-Interface (-) */
(PID.TID 0000.0001)    41 @  1.000000000000000E+00              /* K =  1: 41 */
(PID.TID 0000.0001)     ;
(PID.TID 0000.0001) rVel2wUnit = /* convert units: rVel -> wSpeed (=1 if z-coord)*/
(PID.TID 0000.0001)    41 @  1.000000000000000E+00              /* K =  1: 41 */
(PID.TID 0000.0001)     ;
(PID.TID 0000.0001) wUnit2rVel = /* convert units: wSpeed -> rVel (=1 if z-coord)*/
(PID.TID 0000.0001)    41 @  1.000000000000000E+00              /* K =  1: 41 */
(PID.TID 0000.0001)     ;
(PID.TID 0000.0001) dBdrRef = /* Vertical grad. of reference buoyancy [(m/s/r)^2] */
(PID.TID 0000.0001)    40 @  0.000000000000000E+00              /* K =  1: 40 */
(PID.TID 0000.0001)     ;
(PID.TID 0000.0001) rotateGrid = /* use rotated grid ( True/False ) */
(PID.TID 0000.0001)                   F
(PID.TID 0000.0001)     ;
(PID.TID 0000.0001) phiEuler = /* Euler angle, rotation about original z-coordinate [rad] */
(PID.TID 0000.0001)                 0.000000000000000E+00
(PID.TID 0000.0001)     ;
(PID.TID 0000.0001) thetaEuler = /* Euler angle, rotation about new x-coordinate [rad] */
(PID.TID 0000.0001)                 0.000000000000000E+00
(PID.TID 0000.0001)     ;
(PID.TID 0000.0001) psiEuler = /* Euler angle, rotation about new z-coordinate [rad] */
(PID.TID 0000.0001)                 0.000000000000000E+00
(PID.TID 0000.0001)     ;
(PID.TID 0000.0001) dxF =  /* dxF(:,1,:,1) ( units: m ) */
(PID.TID 0000.0001)    50 @  1.000000000000000E+03              /* I =  1: 50 */
(PID.TID 0000.0001)     ;
(PID.TID 0000.0001) dxF =  /* dxF(1,:,1,:) ( units: m ) */
(PID.TID 0000.0001)    26 @  1.000000000000000E+03              /* J =  1: 26 */
(PID.TID 0000.0001)     ;
(PID.TID 0000.0001) dyF =  /* dyF(:,1,:,1) ( units: m ) */
(PID.TID 0000.0001)    50 @  1.000000000000000E+03              /* I =  1: 50 */
(PID.TID 0000.0001)     ;
(PID.TID 0000.0001) dyF =  /* dyF(1,:,1,:) ( units: m ) */
(PID.TID 0000.0001)    26 @  1.000000000000000E+03              /* J =  1: 26 */
(PID.TID 0000.0001)     ;
(PID.TID 0000.0001) dxG =  /* dxG(:,1,:,1) ( units: m ) */
(PID.TID 0000.0001)    50 @  1.000000000000000E+03              /* I =  1: 50 */
(PID.TID 0000.0001)     ;
(PID.TID 0000.0001) dxG =  /* dxG(1,:,1,:) ( units: m ) */
(PID.TID 0000.0001)    26 @  1.000000000000000E+03              /* J =  1: 26 */
(PID.TID 0000.0001)     ;
(PID.TID 0000.0001) dyG =  /* dyG(:,1,:,1) ( units: m ) */
(PID.TID 0000.0001)    50 @  1.000000000000000E+03              /* I =  1: 50 */
(PID.TID 0000.0001)     ;
(PID.TID 0000.0001) dyG =  /* dyG(1,:,1,:) ( units: m ) */
(PID.TID 0000.0001)    26 @  1.000000000000000E+03              /* J =  1: 26 */
(PID.TID 0000.0001)     ;
(PID.TID 0000.0001) dxC =  /* dxC(:,1,:,1) ( units: m ) */
(PID.TID 0000.0001)    50 @  1.000000000000000E+03              /* I =  1: 50 */
(PID.TID 0000.0001)     ;
(PID.TID 0000.0001) dxC =  /* dxC(1,:,1,:) ( units: m ) */
(PID.TID 0000.0001)    26 @  1.000000000000000E+03              /* J =  1: 26 */
(PID.TID 0000.0001)     ;
(PID.TID 0000.0001) dyC =  /* dyC(:,1,:,1) ( units: m ) */
(PID.TID 0000.0001)    50 @  1.000000000000000E+03              /* I =  1: 50 */
(PID.TID 0000.0001)     ;
(PID.TID 0000.0001) dyC =  /* dyC(1,:,1,:) ( units: m ) */
(PID.TID 0000.0001)    26 @  1.000000000000000E+03              /* J =  1: 26 */
(PID.TID 0000.0001)     ;
(PID.TID 0000.0001) dxV =  /* dxV(:,1,:,1) ( units: m ) */
(PID.TID 0000.0001)    50 @  1.000000000000000E+03              /* I =  1: 50 */
(PID.TID 0000.0001)     ;
(PID.TID 0000.0001) dxV =  /* dxV(1,:,1,:) ( units: m ) */
(PID.TID 0000.0001)    26 @  1.000000000000000E+03              /* J =  1: 26 */
(PID.TID 0000.0001)     ;
(PID.TID 0000.0001) dyU =  /* dyU(:,1,:,1) ( units: m ) */
(PID.TID 0000.0001)    50 @  1.000000000000000E+03              /* I =  1: 50 */
(PID.TID 0000.0001)     ;
(PID.TID 0000.0001) dyU =  /* dyU(1,:,1,:) ( units: m ) */
(PID.TID 0000.0001)    26 @  1.000000000000000E+03              /* J =  1: 26 */
(PID.TID 0000.0001)     ;
(PID.TID 0000.0001) rA  =  /* rA (:,1,:,1) ( units: m^2 ) */
(PID.TID 0000.0001)    50 @  1.000000000000000E+06              /* I =  1: 50 */
(PID.TID 0000.0001)     ;
(PID.TID 0000.0001) rA  =  /* rA (1,:,1,:) ( units: m^2 ) */
(PID.TID 0000.0001)    26 @  1.000000000000000E+06              /* J =  1: 26 */
(PID.TID 0000.0001)     ;
(PID.TID 0000.0001) rAw =  /* rAw(:,1,:,1) ( units: m^2 ) */
(PID.TID 0000.0001)    50 @  1.000000000000000E+06              /* I =  1: 50 */
(PID.TID 0000.0001)     ;
(PID.TID 0000.0001) rAw =  /* rAw(1,:,1,:) ( units: m^2 ) */
(PID.TID 0000.0001)    26 @  1.000000000000000E+06              /* J =  1: 26 */
(PID.TID 0000.0001)     ;
(PID.TID 0000.0001) rAs =  /* rAs(:,1,:,1) ( units: m^2 ) */
(PID.TID 0000.0001)    50 @  1.000000000000000E+06              /* I =  1: 50 */
(PID.TID 0000.0001)     ;
(PID.TID 0000.0001) rAs =  /* rAs(1,:,1,:) ( units: m^2 ) */
(PID.TID 0000.0001)    26 @  1.000000000000000E+06              /* J =  1: 26 */
(PID.TID 0000.0001)     ;
(PID.TID 0000.0001) globalArea = /* Integrated horizontal Area (m^2) */
(PID.TID 0000.0001)                 1.250000000000000E+09
(PID.TID 0000.0001)     ;
(PID.TID 0000.0001) // =======================================================
(PID.TID 0000.0001) // End of Model config. summary
(PID.TID 0000.0001) // =======================================================
(PID.TID 0000.0001) 
(PID.TID 0000.0001) == Packages configuration : Check & print summary ==
(PID.TID 0000.0001) 
(PID.TID 0000.0001) GAD_CHECK: #define ALLOW_GENERIC_ADVDIFF
(PID.TID 0000.0001) // =======================================================
(PID.TID 0000.0001) // Check Model config. (CONFIG_CHECK):
(PID.TID 0000.0001) // CONFIG_CHECK : Normal End
(PID.TID 0000.0001) // =======================================================
(PID.TID 0000.0001) 
(PID.TID 0000.0001)  MDS_READ_FIELD: opening global file: thetaInitial.bin
(PID.TID 0000.0001)  MDS_READ_FIELD: opening global file: spiceInitial.bin
(PID.TID 0000.0001) Start initial hydrostatic pressure computation
(PID.TID 0000.0001) Pressure is predetermined for buoyancyRelation OCEANIC
(PID.TID 0000.0001) 
(PID.TID 0000.0001)  write diagnostics summary to file ioUnit:      6
Iter.Nb:         0 ; Time(s):  0.0000000000000E+00
------------------------------------------------------------------------
2D/3D diagnostics: Number of lists:     2
------------------------------------------------------------------------
listId=    1 ; file name: momDiag
 nFlds, nActive,       freq     &     phase        , nLev               
    5  |    5  |    864000.000000         0.000000 |  40
 levels:   1   2   3   4   5   6   7   8   9  10  11  12  13  14  15  16  17  18  19  20  21  22  23  24  25
 levels:  26  27  28  29  30  31  32  33  34  35  36  37  38  39  40
 diag# | name   |   ipt  |  iMate | kLev|   count |   mate.C|           
   147 |momKE   |      1 |      0 |  40 |       0 |
   148 |momHDiv |     41 |      0 |  40 |       0 |
   149 |momVort3|     81 |      0 |  40 |       0 |
   150 |Strain  |    121 |      0 |  40 |       0 |
   151 |Tension |    161 |      0 |  40 |       0 |
------------------------------------------------------------------------
listId=    2 ; file name: viscDiag
 nFlds, nActive,       freq     &     phase        , nLev               
   24  |   24  |    864000.000000         0.000000 |  40
 levels:   1   2   3   4   5   6   7   8   9  10  11  12  13  14  15  16  17  18  19  20  21  22  23  24  25
 levels:  26  27  28  29  30  31  32  33  34  35  36  37  38  39  40
 diag# | name   |   ipt  |  iMate | kLev|   count |   mate.C|           
   123 |VISCAHD |    201 |      0 |  40 |       0 |
   124 |VISCA4D |    241 |      0 |  40 |       0 |
   121 |VISCAHZ |    281 |      0 |  40 |       0 |
   122 |VISCA4Z |    321 |      0 |  40 |       0 |
   129 |VAHDMAX |    361 |      0 |  40 |       0 |
   130 |VA4DMAX |    401 |      0 |  40 |       0 |
   127 |VAHZMAX |    441 |      0 |  40 |       0 |
   128 |VA4ZMAX |    481 |      0 |  40 |       0 |
   133 |VAHDMIN |    521 |      0 |  40 |       0 |
   134 |VA4DMIN |    561 |      0 |  40 |       0 |
   131 |VAHZMIN |    601 |      0 |  40 |       0 |
   132 |VA4ZMIN |    641 |      0 |  40 |       0 |
   137 |VAHDLTH |    681 |      0 |  40 |       0 |
   138 |VA4DLTH |    721 |      0 |  40 |       0 |
   135 |VAHZLTH |    761 |      0 |  40 |       0 |
   136 |VA4ZLTH |    801 |      0 |  40 |       0 |
   141 |VAHDLTHD|    841 |      0 |  40 |       0 |
   142 |VA4DLTHD|    881 |      0 |  40 |       0 |
   139 |VAHZLTHD|    921 |      0 |  40 |       0 |
   140 |VA4ZLTHD|    961 |      0 |  40 |       0 |
   145 |VAHDSMAG|   1001 |      0 |  40 |       0 |
   146 |VA4DSMAG|   1041 |      0 |  40 |       0 |
   143 |VAHZSMAG|   1081 |      0 |  40 |       0 |
   144 |VA4ZSMAG|   1121 |      0 |  40 |       0 |
------------------------------------------------------------------------
Global & Regional Statistics diagnostics: Number of lists:     0
------------------------------------------------------------------------
(PID.TID 0000.0001) // =======================================================
(PID.TID 0000.0001) // Model current state
(PID.TID 0000.0001) // =======================================================
(PID.TID 0000.0001) 
(PID.TID 0000.0001) // =======================================================
(PID.TID 0000.0001) // Begin MONITOR dynamic field statistics
(PID.TID 0000.0001) // =======================================================
(PID.TID 0000.0001) %MON time_tsnumber                =                     0
(PID.TID 0000.0001) %MON time_secondsf                =   0.0000000000000E+00
(PID.TID 0000.0001) %MON dynstat_eta_max              =   0.0000000000000E+00
(PID.TID 0000.0001) %MON dynstat_eta_min              =   0.0000000000000E+00
(PID.TID 0000.0001) %MON dynstat_eta_mean             =   0.0000000000000E+00
(PID.TID 0000.0001) %MON dynstat_eta_sd               =   0.0000000000000E+00
(PID.TID 0000.0001) %MON dynstat_eta_del2             =   0.0000000000000E+00
(PID.TID 0000.0001) %MON dynstat_uvel_max             =   0.0000000000000E+00
(PID.TID 0000.0001) %MON dynstat_uvel_min             =   0.0000000000000E+00
(PID.TID 0000.0001) %MON dynstat_uvel_mean            =   0.0000000000000E+00
(PID.TID 0000.0001) %MON dynstat_uvel_sd              =   0.0000000000000E+00
(PID.TID 0000.0001) %MON dynstat_uvel_del2            =   0.0000000000000E+00
(PID.TID 0000.0001) %MON dynstat_vvel_max             =   0.0000000000000E+00
(PID.TID 0000.0001) %MON dynstat_vvel_min             =   0.0000000000000E+00
(PID.TID 0000.0001) %MON dynstat_vvel_mean            =   0.0000000000000E+00
(PID.TID 0000.0001) %MON dynstat_vvel_sd              =   0.0000000000000E+00
(PID.TID 0000.0001) %MON dynstat_vvel_del2            =   0.0000000000000E+00
(PID.TID 0000.0001) %MON dynstat_wvel_max             =  -0.0000000000000E+00
(PID.TID 0000.0001) %MON dynstat_wvel_min             =  -0.0000000000000E+00
(PID.TID 0000.0001) %MON dynstat_wvel_mean            =   0.0000000000000E+00
(PID.TID 0000.0001) %MON dynstat_wvel_sd              =   0.0000000000000E+00
(PID.TID 0000.0001) %MON dynstat_wvel_del2            =   0.0000000000000E+00
(PID.TID 0000.0001) %MON dynstat_theta_max            =   1.7020391872710E+01
(PID.TID 0000.0001) %MON dynstat_theta_min            =   1.6979608188987E+01
(PID.TID 0000.0001) %MON dynstat_theta_mean           =   1.6999999951796E+01
(PID.TID 0000.0001) %MON dynstat_theta_sd             =   1.8685323590465E-02
(PID.TID 0000.0001) %MON dynstat_theta_del2           =   6.2902103160361E-06
(PID.TID 0000.0001) %MON dynstat_salt_max             =   1.7020387109310E+01
(PID.TID 0000.0001) %MON dynstat_salt_min             =   1.6979612982854E+01
(PID.TID 0000.0001) %MON dynstat_salt_mean            =   1.7000000005832E+01
(PID.TID 0000.0001) %MON dynstat_salt_sd              =   1.8685329922587E-02
(PID.TID 0000.0001) %MON dynstat_salt_del2            =   6.2895521973776E-06
(PID.TID 0000.0001) %MON advcfl_uvel_max              =   0.0000000000000E+00
(PID.TID 0000.0001) %MON advcfl_vvel_max              =   0.0000000000000E+00
(PID.TID 0000.0001) %MON advcfl_wvel_max              =   0.0000000000000E+00
(PID.TID 0000.0001) %MON advcfl_W_hf_max              =   0.0000000000000E+00
(PID.TID 0000.0001) %MON pe_b_mean                    =   0.0000000000000E+00
(PID.TID 0000.0001) %MON ke_max                       =   0.0000000000000E+00
(PID.TID 0000.0001) %MON ke_mean                      =   0.0000000000000E+00
(PID.TID 0000.0001) %MON ke_vol                       =   2.5000000000000E+11
(PID.TID 0000.0001) %MON vort_r_min                   =   0.0000000000000E+00
(PID.TID 0000.0001) %MON vort_r_max                   =   0.0000000000000E+00
(PID.TID 0000.0001) %MON vort_a_mean                  =   7.2900000000000E-05
(PID.TID 0000.0001) %MON vort_a_sd                    =   3.4834953116307E-11
(PID.TID 0000.0001) %MON vort_p_mean                  =   7.7363265306122E-05
(PID.TID 0000.0001) %MON vort_p_sd                    =   3.0922409111485E-05
(PID.TID 0000.0001) %MON surfExpan_theta_mean         =   0.0000000000000E+00
(PID.TID 0000.0001) %MON surfExpan_salt_mean          =   0.0000000000000E+00
(PID.TID 0000.0001) // =======================================================
(PID.TID 0000.0001) // End MONITOR dynamic field statistics
(PID.TID 0000.0001) // =======================================================
(PID.TID 0000.0001) SOLVE_FOR_PRESSURE: putPmEinXvector =    F
 cg2d: Sum(rhs),rhsMax =  -1.13686837721616E-13  6.56468600583942E-04
(PID.TID 0000.0001)      cg2d_init_res =   1.48626964518938E+01
(PID.TID 0000.0001)      cg2d_iters(min,last) =      -1      87
(PID.TID 0000.0001)      cg2d_last_res =   7.06118400673609E-12
(PID.TID 0000.0001) // =======================================================
(PID.TID 0000.0001) // Begin MONITOR dynamic field statistics
(PID.TID 0000.0001) // =======================================================
(PID.TID 0000.0001) %MON time_tsnumber                =                     1
(PID.TID 0000.0001) %MON time_secondsf                =   1.2000000000000E+03
(PID.TID 0000.0001) %MON dynstat_eta_max              =   3.9842268071138E-04
(PID.TID 0000.0001) %MON dynstat_eta_min              =  -3.9842837043618E-04
(PID.TID 0000.0001) %MON dynstat_eta_mean             =  -4.3958425521851E-18
(PID.TID 0000.0001) %MON dynstat_eta_sd               =   3.6612608254614E-04
(PID.TID 0000.0001) %MON dynstat_eta_del2             =   7.9412689411988E-07
(PID.TID 0000.0001) %MON dynstat_uvel_max             =   2.2544011490905E-06
(PID.TID 0000.0001) %MON dynstat_uvel_min             =  -2.2551996809585E-06
(PID.TID 0000.0001) %MON dynstat_uvel_mean            =   5.2406967654406E-24
(PID.TID 0000.0001) %MON dynstat_uvel_sd              =   5.5824477054852E-07
(PID.TID 0000.0001) %MON dynstat_uvel_del2            =   9.8436046926051E-09
(PID.TID 0000.0001) %MON dynstat_vvel_max             =   2.1462006561600E-03
(PID.TID 0000.0001) %MON dynstat_vvel_min             =  -2.1830777145806E-03
(PID.TID 0000.0001) %MON dynstat_vvel_mean            =  -1.0578841014773E-05
(PID.TID 0000.0001) %MON dynstat_vvel_sd              =   4.5799186676801E-04
(PID.TID 0000.0001) %MON dynstat_vvel_del2            =   6.7822512222993E-07
(PID.TID 0000.0001) %MON dynstat_wvel_max             =   3.9378351299747E-05
(PID.TID 0000.0001) %MON dynstat_wvel_min             =  -3.9465541968651E-05
(PID.TID 0000.0001) %MON dynstat_wvel_mean            =  -6.6017802757553E-21
(PID.TID 0000.0001) %MON dynstat_wvel_sd              =   1.2228152067998E-05
(PID.TID 0000.0001) %MON dynstat_wvel_del2            =   4.1159460196003E-08
(PID.TID 0000.0001) %MON dynstat_theta_max            =   1.7020391872709E+01
(PID.TID 0000.0001) %MON dynstat_theta_min            =   1.6979608188987E+01
(PID.TID 0000.0001) %MON dynstat_theta_mean           =   1.6999999917591E+01
(PID.TID 0000.0001) %MON dynstat_theta_sd             =   1.8685309690077E-02
(PID.TID 0000.0001) %MON dynstat_theta_del2           =   6.2898603468999E-06
(PID.TID 0000.0001) %MON dynstat_salt_max             =   1.7020387109310E+01
(PID.TID 0000.0001) %MON dynstat_salt_min             =   1.6979612982854E+01
(PID.TID 0000.0001) %MON dynstat_salt_mean            =   1.7000000005832E+01
(PID.TID 0000.0001) %MON dynstat_salt_sd              =   1.8685329918559E-02
(PID.TID 0000.0001) %MON dynstat_salt_del2            =   6.2895520572782E-06
(PID.TID 0000.0001) %MON advcfl_uvel_max              =   2.7062396171502E-06
(PID.TID 0000.0001) %MON advcfl_vvel_max              =   2.6196932574967E-03
(PID.TID 0000.0001) %MON advcfl_wvel_max              =   9.4717300724761E-03
(PID.TID 0000.0001) %MON advcfl_W_hf_max              =   9.4717300724761E-03
(PID.TID 0000.0001) %MON pe_b_mean                    =   3.2875347615623E-09
(PID.TID 0000.0001) %MON ke_max                       =   2.3803454176286E-06
(PID.TID 0000.0001) %MON ke_mean                      =   1.0073701753199E-07
(PID.TID 0000.0001) %MON ke_vol                       =   2.5000000000000E+11
(PID.TID 0000.0001) %MON vort_r_min                   =  -2.0745914737624E-09
(PID.TID 0000.0001) %MON vort_r_max                   =   2.0747317232234E-09
(PID.TID 0000.0001) %MON vort_a_mean                  =   7.2900000000000E-05
(PID.TID 0000.0001) %MON vort_a_sd                    =   1.5530537492770E-10
(PID.TID 0000.0001) %MON vort_p_mean                  =   7.7363265306122E-05
(PID.TID 0000.0001) %MON vort_p_sd                    =   3.0922409113065E-05
(PID.TID 0000.0001) %MON surfExpan_theta_mean         =   5.7008896850755E-09
(PID.TID 0000.0001) %MON surfExpan_salt_mean          =  -1.1711318984453E-14
(PID.TID 0000.0001) // =======================================================
(PID.TID 0000.0001) // End MONITOR dynamic field statistics
(PID.TID 0000.0001) // =======================================================
 cg2d: Sum(rhs),rhsMax =   1.98951966012828E-13  6.57707336383614E-04
(PID.TID 0000.0001)      cg2d_init_res =   1.36783803671234E-01
(PID.TID 0000.0001)      cg2d_iters(min,last) =      -1      74
(PID.TID 0000.0001)      cg2d_last_res =   8.32050259303677E-12
(PID.TID 0000.0001) // =======================================================
(PID.TID 0000.0001) // Begin MONITOR dynamic field statistics
(PID.TID 0000.0001) // =======================================================
(PID.TID 0000.0001) %MON time_tsnumber                =                     2
(PID.TID 0000.0001) %MON time_secondsf                =   2.4000000000000E+03
(PID.TID 0000.0001) %MON dynstat_eta_max              =   4.1814695091058E-04
(PID.TID 0000.0001) %MON dynstat_eta_min              =  -4.1812434788366E-04
(PID.TID 0000.0001) %MON dynstat_eta_mean             =  -1.0058283805847E-18
(PID.TID 0000.0001) %MON dynstat_eta_sd               =   3.8096690378831E-04
(PID.TID 0000.0001) %MON dynstat_eta_del2             =   7.9711737803962E-07
(PID.TID 0000.0001) %MON dynstat_uvel_max             =   2.8737295186326E-04
(PID.TID 0000.0001) %MON dynstat_uvel_min             =  -2.9224948088417E-04
(PID.TID 0000.0001) %MON dynstat_uvel_mean            =  -1.3502527510244E-06
(PID.TID 0000.0001) %MON dynstat_uvel_sd              =   5.7926396155535E-05
(PID.TID 0000.0001) %MON dynstat_uvel_del2            =   7.7102018265685E-08
(PID.TID 0000.0001) %MON dynstat_vvel_max             =   4.3288048763395E-03
(PID.TID 0000.0001) %MON dynstat_vvel_min             =  -4.3297477495782E-03
(PID.TID 0000.0001) %MON dynstat_vvel_mean            =  -4.7572874260797E-07
(PID.TID 0000.0001) %MON dynstat_vvel_sd              =   9.1588692556532E-04
(PID.TID 0000.0001) %MON dynstat_vvel_del2            =   1.3561056628528E-06
(PID.TID 0000.0001) %MON dynstat_wvel_max             =   7.8578252480100E-05
(PID.TID 0000.0001) %MON dynstat_wvel_min             =  -7.8754425638854E-05
(PID.TID 0000.0001) %MON dynstat_wvel_mean            =  -3.0179566974881E-20
(PID.TID 0000.0001) %MON dynstat_wvel_sd              =   2.4335219410710E-05
(PID.TID 0000.0001) %MON dynstat_wvel_del2            =   8.2211206141341E-08
(PID.TID 0000.0001) %MON dynstat_theta_max            =   1.7020391872709E+01
(PID.TID 0000.0001) %MON dynstat_theta_min            =   1.6979608188987E+01
(PID.TID 0000.0001) %MON dynstat_theta_mean           =   1.6999999916205E+01
(PID.TID 0000.0001) %MON dynstat_theta_sd             =   1.8685281797577E-02
(PID.TID 0000.0001) %MON dynstat_theta_del2           =   6.2891738899845E-06
(PID.TID 0000.0001) %MON dynstat_salt_max             =   1.7020387109310E+01
(PID.TID 0000.0001) %MON dynstat_salt_min             =   1.6979612982854E+01
(PID.TID 0000.0001) %MON dynstat_salt_mean            =   1.7000000005832E+01
(PID.TID 0000.0001) %MON dynstat_salt_sd              =   1.8685329644947E-02
(PID.TID 0000.0001) %MON dynstat_salt_del2            =   6.2895426911629E-06
(PID.TID 0000.0001) %MON advcfl_uvel_max              =   3.5069937706100E-04
(PID.TID 0000.0001) %MON advcfl_vvel_max              =   5.1956972994938E-03
(PID.TID 0000.0001) %MON advcfl_wvel_max              =   1.8901062153325E-02
(PID.TID 0000.0001) %MON advcfl_W_hf_max              =   1.8901062153325E-02
(PID.TID 0000.0001) %MON pe_b_mean                    =   3.5594550482047E-09
(PID.TID 0000.0001) %MON ke_max                       =   9.4027612295991E-06
(PID.TID 0000.0001) %MON ke_mean                      =   4.0432620691191E-07
(PID.TID 0000.0001) %MON ke_vol                       =   2.5000000000000E+11
(PID.TID 0000.0001) %MON vort_r_min                   =  -9.8836165156913E-08
(PID.TID 0000.0001) %MON vort_r_max                   =   9.8801066332701E-08
(PID.TID 0000.0001) %MON vort_a_mean                  =   7.2900000000000E-05
(PID.TID 0000.0001) %MON vort_a_sd                    =   2.2893216871766E-08
(PID.TID 0000.0001) %MON vort_p_mean                  =   7.7363265306122E-05
(PID.TID 0000.0001) %MON vort_p_sd                    =   3.0922418108563E-05
(PID.TID 0000.0001) %MON surfExpan_theta_mean         =   2.3109863547891E-10
(PID.TID 0000.0001) %MON surfExpan_salt_mean          =  -6.7253137103762E-16
(PID.TID 0000.0001) // =======================================================
(PID.TID 0000.0001) // End MONITOR dynamic field statistics
(PID.TID 0000.0001) // =======================================================
 cg2d: Sum(rhs),rhsMax =   4.26325641456060E-14  6.57125664248066E-04
(PID.TID 0000.0001)      cg2d_init_res =   6.95274457677196E-02
(PID.TID 0000.0001)      cg2d_iters(min,last) =      -1      72
(PID.TID 0000.0001)      cg2d_last_res =   8.63440767172341E-12
(PID.TID 0000.0001) // =======================================================
(PID.TID 0000.0001) // Begin MONITOR dynamic field statistics
(PID.TID 0000.0001) // =======================================================
(PID.TID 0000.0001) %MON time_tsnumber                =                     3
(PID.TID 0000.0001) %MON time_secondsf                =   3.6000000000000E+03
(PID.TID 0000.0001) %MON dynstat_eta_max              =   4.0840773496949E-04
(PID.TID 0000.0001) %MON dynstat_eta_min              =  -4.0831016784055E-04
(PID.TID 0000.0001) %MON dynstat_eta_mean             =  -2.7194619178772E-18
(PID.TID 0000.0001) %MON dynstat_eta_sd               =   3.7405761758295E-04
(PID.TID 0000.0001) %MON dynstat_eta_del2             =   7.9553991608144E-07
(PID.TID 0000.0001) %MON dynstat_uvel_max             =   7.6467842070198E-04
(PID.TID 0000.0001) %MON dynstat_uvel_min             =  -7.6811925143946E-04
(PID.TID 0000.0001) %MON dynstat_uvel_mean            =  -9.5499889674146E-07
(PID.TID 0000.0001) %MON dynstat_uvel_sd              =   1.5417590933910E-04
(PID.TID 0000.0001) %MON dynstat_uvel_del2            =   2.0058846948810E-07
(PID.TID 0000.0001) %MON dynstat_vvel_max             =   6.4610988226147E-03
(PID.TID 0000.0001) %MON dynstat_vvel_min             =  -6.4596485444387E-03
(PID.TID 0000.0001) %MON dynstat_vvel_mean            =   2.2105985944161E-07
(PID.TID 0000.0001) %MON dynstat_vvel_sd              =   1.3661150902437E-03
(PID.TID 0000.0001) %MON dynstat_vvel_del2            =   2.0242266329757E-06
(PID.TID 0000.0001) %MON dynstat_wvel_max             =   1.1729085531625E-04
(PID.TID 0000.0001) %MON dynstat_wvel_min             =  -1.1755382192176E-04
(PID.TID 0000.0001) %MON dynstat_wvel_mean            =  -3.4895124314707E-20
(PID.TID 0000.0001) %MON dynstat_wvel_sd              =   3.6310323669116E-05
(PID.TID 0000.0001) %MON dynstat_wvel_del2            =   1.2274318962638E-07
(PID.TID 0000.0001) %MON dynstat_theta_max            =   1.7020391872709E+01
(PID.TID 0000.0001) %MON dynstat_theta_min            =   1.6979608188987E+01
(PID.TID 0000.0001) %MON dynstat_theta_mean           =   1.6999999916850E+01
(PID.TID 0000.0001) %MON dynstat_theta_sd             =   1.8685239976704E-02
(PID.TID 0000.0001) %MON dynstat_theta_del2           =   6.2881845775759E-06
(PID.TID 0000.0001) %MON dynstat_salt_max             =   1.7020387109310E+01
(PID.TID 0000.0001) %MON dynstat_salt_min             =   1.6979612982854E+01
(PID.TID 0000.0001) %MON dynstat_salt_mean            =   1.7000000005832E+01
(PID.TID 0000.0001) %MON dynstat_salt_sd              =   1.8685328925704E-02
(PID.TID 0000.0001) %MON dynstat_salt_del2            =   6.2895181402279E-06
(PID.TID 0000.0001) %MON advcfl_uvel_max              =   9.2174310172735E-04
(PID.TID 0000.0001) %MON advcfl_vvel_max              =   7.7533185871376E-03
(PID.TID 0000.0001) %MON advcfl_wvel_max              =   2.8212917261221E-02
(PID.TID 0000.0001) %MON advcfl_W_hf_max              =   2.8212917261221E-02
(PID.TID 0000.0001) %MON pe_b_mean                    =   3.4315159586917E-09
(PID.TID 0000.0001) %MON ke_max                       =   2.1112081454745E-05
(PID.TID 0000.0001) %MON ke_mean                      =   9.0769539607800E-07
(PID.TID 0000.0001) %MON ke_vol                       =   2.5000000000000E+11
(PID.TID 0000.0001) %MON vort_r_min                   =  -2.6267293640853E-07
(PID.TID 0000.0001) %MON vort_r_max                   =   2.6284765113018E-07
(PID.TID 0000.0001) %MON vort_a_mean                  =   7.2900000000000E-05
(PID.TID 0000.0001) %MON vort_a_sd                    =   6.0932923286192E-08
(PID.TID 0000.0001) %MON vort_p_mean                  =   7.7363265306122E-05
(PID.TID 0000.0001) %MON vort_p_sd                    =   3.0922472834665E-05
(PID.TID 0000.0001) %MON surfExpan_theta_mean         =  -1.0751062648587E-10
(PID.TID 0000.0001) %MON surfExpan_salt_mean          =   2.8138499601482E-16
(PID.TID 0000.0001) // =======================================================
(PID.TID 0000.0001) // End MONITOR dynamic field statistics
(PID.TID 0000.0001) // =======================================================
 cg2d: Sum(rhs),rhsMax =  -4.26325641456060E-14  6.57117402634081E-04
(PID.TID 0000.0001)      cg2d_init_res =   3.80928656840668E-02
(PID.TID 0000.0001)      cg2d_iters(min,last) =      -1      73
(PID.TID 0000.0001)      cg2d_last_res =   5.67103058444060E-12
(PID.TID 0000.0001) // =======================================================
(PID.TID 0000.0001) // Begin MONITOR dynamic field statistics
(PID.TID 0000.0001) // =======================================================
(PID.TID 0000.0001) %MON time_tsnumber                =                     4
(PID.TID 0000.0001) %MON time_secondsf                =   4.8000000000000E+03
(PID.TID 0000.0001) %MON dynstat_eta_max              =   4.0766152254864E-04
(PID.TID 0000.0001) %MON dynstat_eta_min              =  -4.0745829829044E-04
(PID.TID 0000.0001) %MON dynstat_eta_mean             =   2.6077032089233E-19
(PID.TID 0000.0001) %MON dynstat_eta_sd               =   3.7351458803833E-04
(PID.TID 0000.0001) %MON dynstat_eta_del2             =   7.9534106398228E-07
(PID.TID 0000.0001) %MON dynstat_uvel_max             =   1.4253498126461E-03
(PID.TID 0000.0001) %MON dynstat_uvel_min             =  -1.4286715929994E-03
(PID.TID 0000.0001) %MON dynstat_uvel_mean            =  -9.0621837686953E-07
(PID.TID 0000.0001) %MON dynstat_uvel_sd              =   2.8779201903890E-04
(PID.TID 0000.0001) %MON dynstat_uvel_del2            =   3.7253419640054E-07
(PID.TID 0000.0001) %MON dynstat_vvel_max             =   8.5475510588863E-03
(PID.TID 0000.0001) %MON dynstat_vvel_min             =  -8.5464726342620E-03
(PID.TID 0000.0001) %MON dynstat_vvel_mean            =   1.7605874535462E-08
(PID.TID 0000.0001) %MON dynstat_vvel_sd              =   1.8061372298082E-03
(PID.TID 0000.0001) %MON dynstat_vvel_del2            =   2.6792493550153E-06
(PID.TID 0000.0001) %MON dynstat_wvel_max             =   1.5524753566517E-04
(PID.TID 0000.0001) %MON dynstat_wvel_min             =  -1.5559618557749E-04
(PID.TID 0000.0001) %MON dynstat_wvel_mean            =  -2.1691563763196E-20
(PID.TID 0000.0001) %MON dynstat_wvel_sd              =   4.8036773654399E-05
(PID.TID 0000.0001) %MON dynstat_wvel_del2            =   1.6251950615064E-07
(PID.TID 0000.0001) %MON dynstat_theta_max            =   1.7020391872709E+01
(PID.TID 0000.0001) %MON dynstat_theta_min            =   1.6979608188987E+01
(PID.TID 0000.0001) %MON dynstat_theta_mean           =   1.6999999916900E+01
(PID.TID 0000.0001) %MON dynstat_theta_sd             =   1.8685184303608E-02
(PID.TID 0000.0001) %MON dynstat_theta_del2           =   6.2869412972480E-06
(PID.TID 0000.0001) %MON dynstat_salt_max             =   1.7020387109310E+01
(PID.TID 0000.0001) %MON dynstat_salt_min             =   1.6979612982854E+01
(PID.TID 0000.0001) %MON dynstat_salt_mean            =   1.7000000005832E+01
(PID.TID 0000.0001) %MON dynstat_salt_sd              =   1.8685327586877E-02
(PID.TID 0000.0001) %MON dynstat_salt_del2            =   6.2894727123992E-06
(PID.TID 0000.0001) %MON advcfl_uvel_max              =   1.7144059115993E-03
(PID.TID 0000.0001) %MON advcfl_vvel_max              =   1.0257061270664E-02
(PID.TID 0000.0001) %MON advcfl_wvel_max              =   3.7343084538597E-02
(PID.TID 0000.0001) %MON advcfl_W_hf_max              =   3.7343084538597E-02
(PID.TID 0000.0001) %MON pe_b_mean                    =   3.4215599418843E-09
(PID.TID 0000.0001) %MON ke_max                       =   3.7414161610755E-05
(PID.TID 0000.0001) %MON ke_mean                      =   1.6072357464676E-06
(PID.TID 0000.0001) %MON ke_vol                       =   2.5000000000000E+11
(PID.TID 0000.0001) %MON vort_r_min                   =  -4.9002576381115E-07
(PID.TID 0000.0001) %MON vort_r_max                   =   4.9109218450749E-07
(PID.TID 0000.0001) %MON vort_a_mean                  =   7.2900000000000E-05
(PID.TID 0000.0001) %MON vort_a_sd                    =   1.1375849669696E-07
(PID.TID 0000.0001) %MON vort_p_mean                  =   7.7363265306122E-05
(PID.TID 0000.0001) %MON vort_p_sd                    =   3.0922631203907E-05
(PID.TID 0000.0001) %MON surfExpan_theta_mean         =  -8.4625079036925E-12
(PID.TID 0000.0001) %MON surfExpan_salt_mean          =  -6.3803575756083E-18
(PID.TID 0000.0001) // =======================================================
(PID.TID 0000.0001) // End MONITOR dynamic field statistics
(PID.TID 0000.0001) // =======================================================
 cg2d: Sum(rhs),rhsMax =  -8.52651282912120E-14  6.56987959672837E-04
(PID.TID 0000.0001)      cg2d_init_res =   4.65232701032010E-02
(PID.TID 0000.0001)      cg2d_iters(min,last) =      -1      73
(PID.TID 0000.0001)      cg2d_last_res =   7.96048767588430E-12
(PID.TID 0000.0001) // =======================================================
(PID.TID 0000.0001) // Begin MONITOR dynamic field statistics
(PID.TID 0000.0001) // =======================================================
(PID.TID 0000.0001) %MON time_tsnumber                =                     5
(PID.TID 0000.0001) %MON time_secondsf                =   6.0000000000000E+03
(PID.TID 0000.0001) %MON dynstat_eta_max              =   4.0789890032481E-04
(PID.TID 0000.0001) %MON dynstat_eta_min              =  -4.0756838606469E-04
(PID.TID 0000.0001) %MON dynstat_eta_mean             =   2.3469328880310E-18
(PID.TID 0000.0001) %MON dynstat_eta_sd               =   3.7363102402369E-04
(PID.TID 0000.0001) %MON dynstat_eta_del2             =   7.9513296413932E-07
(PID.TID 0000.0001) %MON dynstat_uvel_max             =   2.2650037813534E-03
(PID.TID 0000.0001) %MON dynstat_uvel_min             =  -2.2684076985252E-03
(PID.TID 0000.0001) %MON dynstat_uvel_mean            =  -9.1350859478218E-07
(PID.TID 0000.0001) %MON dynstat_uvel_sd              =   4.5779688307044E-04
(PID.TID 0000.0001) %MON dynstat_uvel_del2            =   5.9158611664043E-07
(PID.TID 0000.0001) %MON dynstat_vvel_max             =   1.0575568189360E-02
(PID.TID 0000.0001) %MON dynstat_vvel_min             =  -1.0574310074187E-02
(PID.TID 0000.0001) %MON dynstat_vvel_mean            =  -3.8169810200100E-09
(PID.TID 0000.0001) %MON dynstat_vvel_sd              =   2.2327056101464E-03
(PID.TID 0000.0001) %MON dynstat_vvel_del2            =   3.3169327350257E-06
(PID.TID 0000.0001) %MON dynstat_wvel_max             =   1.9219711234566E-04
(PID.TID 0000.0001) %MON dynstat_wvel_min             =  -1.9262994622228E-04
(PID.TID 0000.0001) %MON dynstat_wvel_mean            =  -3.2065789910811E-20
(PID.TID 0000.0001) %MON dynstat_wvel_sd              =   5.9431021424254E-05
(PID.TID 0000.0001) %MON dynstat_wvel_del2            =   2.0129016730992E-07
(PID.TID 0000.0001) %MON dynstat_theta_max            =   1.7020391872709E+01
(PID.TID 0000.0001) %MON dynstat_theta_min            =   1.6979608188987E+01
(PID.TID 0000.0001) %MON dynstat_theta_mean           =   1.6999999916890E+01
(PID.TID 0000.0001) %MON dynstat_theta_sd             =   1.8685114894815E-02
(PID.TID 0000.0001) %MON dynstat_theta_del2           =   6.2855072271581E-06
(PID.TID 0000.0001) %MON dynstat_salt_max             =   1.7020387109310E+01
(PID.TID 0000.0001) %MON dynstat_salt_min             =   1.6979612982854E+01
(PID.TID 0000.0001) %MON dynstat_salt_mean            =   1.7000000005832E+01
(PID.TID 0000.0001) %MON dynstat_salt_sd              =   1.8685325460381E-02
(PID.TID 0000.0001) %MON dynstat_salt_del2            =   6.2894012843668E-06
(PID.TID 0000.0001) %MON advcfl_uvel_max              =   2.7220892382302E-03
(PID.TID 0000.0001) %MON advcfl_vvel_max              =   1.2690681827232E-02
(PID.TID 0000.0001) %MON advcfl_wvel_max              =   4.6231187093346E-02
(PID.TID 0000.0001) %MON advcfl_W_hf_max              =   4.6231187093346E-02
(PID.TID 0000.0001) %MON pe_b_mean                    =   3.4236934853212E-09
(PID.TID 0000.0001) %MON ke_max                       =   5.8202043383432E-05
(PID.TID 0000.0001) %MON ke_mean                      =   2.4975770942885E-06
(PID.TID 0000.0001) %MON ke_vol                       =   2.5000000000000E+11
(PID.TID 0000.0001) %MON vort_r_min                   =  -7.7905503331656E-07
(PID.TID 0000.0001) %MON vort_r_max                   =   7.8231601028748E-07
(PID.TID 0000.0001) %MON vort_a_mean                  =   7.2900000000000E-05
(PID.TID 0000.0001) %MON vort_a_sd                    =   1.8100255136716E-07
(PID.TID 0000.0001) %MON vort_p_mean                  =   7.7363265306122E-05
(PID.TID 0000.0001) %MON vort_p_sd                    =   3.0922971340229E-05
(PID.TID 0000.0001) %MON surfExpan_theta_mean         =   1.7998153582147E-12
(PID.TID 0000.0001) %MON surfExpan_salt_mean          =  -4.2204236994081E-17
(PID.TID 0000.0001) // =======================================================
(PID.TID 0000.0001) // End MONITOR dynamic field statistics
(PID.TID 0000.0001) // =======================================================
 cg2d: Sum(rhs),rhsMax =  -1.56319401867222E-13  6.56605053076886E-04
(PID.TID 0000.0001)      cg2d_init_res =   5.21866690550620E-02
(PID.TID 0000.0001)      cg2d_iters(min,last) =      -1      74
(PID.TID 0000.0001)      cg2d_last_res =   5.45301248179175E-12
(PID.TID 0000.0001) // =======================================================
(PID.TID 0000.0001) // Begin MONITOR dynamic field statistics
(PID.TID 0000.0001) // =======================================================
(PID.TID 0000.0001) %MON time_tsnumber                =                     6
(PID.TID 0000.0001) %MON time_secondsf                =   7.2000000000000E+03
(PID.TID 0000.0001) %MON dynstat_eta_max              =   4.0798987837037E-04
(PID.TID 0000.0001) %MON dynstat_eta_min              =  -4.0752129135420E-04
(PID.TID 0000.0001) %MON dynstat_eta_mean             =   1.4081597328186E-17
(PID.TID 0000.0001) %MON dynstat_eta_sd               =   3.7364347261917E-04
(PID.TID 0000.0001) %MON dynstat_eta_del2             =   7.9483060143302E-07
(PID.TID 0000.0001) %MON dynstat_uvel_max             =   3.2772243359451E-03
(PID.TID 0000.0001) %MON dynstat_uvel_min             =  -3.2807199165854E-03
(PID.TID 0000.0001) %MON dynstat_uvel_mean            =  -9.1475589727650E-07
(PID.TID 0000.0001) %MON dynstat_uvel_sd              =   6.6290867448590E-04
(PID.TID 0000.0001) %MON dynstat_uvel_del2            =   8.5620738022732E-07
(PID.TID 0000.0001) %MON dynstat_vvel_max             =   1.2530892021468E-02
(PID.TID 0000.0001) %MON dynstat_vvel_min             =  -1.2529386165005E-02
(PID.TID 0000.0001) %MON dynstat_vvel_mean            =  -4.6136744645741E-10
(PID.TID 0000.0001) %MON dynstat_vvel_sd              =   2.6426579705793E-03
(PID.TID 0000.0001) %MON dynstat_vvel_del2            =   3.9331105373904E-06
(PID.TID 0000.0001) %MON dynstat_wvel_max             =   2.2789440383527E-04
(PID.TID 0000.0001) %MON dynstat_wvel_min             =  -2.2840945529866E-04
(PID.TID 0000.0001) %MON dynstat_wvel_mean            =   4.9041796334182E-20
(PID.TID 0000.0001) %MON dynstat_wvel_sd              =   7.0414676508373E-05
(PID.TID 0000.0001) %MON dynstat_wvel_del2            =   2.3880667250915E-07
(PID.TID 0000.0001) %MON dynstat_theta_max            =   1.7020391872709E+01
(PID.TID 0000.0001) %MON dynstat_theta_min            =   1.6979608188987E+01
(PID.TID 0000.0001) %MON dynstat_theta_mean           =   1.6999999916889E+01
(PID.TID 0000.0001) %MON dynstat_theta_sd             =   1.8685031914391E-02
(PID.TID 0000.0001) %MON dynstat_theta_del2           =   6.2839578367004E-06
(PID.TID 0000.0001) %MON dynstat_salt_max             =   1.7020387109310E+01
(PID.TID 0000.0001) %MON dynstat_salt_min             =   1.6979612982854E+01
(PID.TID 0000.0001) %MON dynstat_salt_mean            =   1.7000000005832E+01
(PID.TID 0000.0001) %MON dynstat_salt_sd              =   1.8685322384579E-02
(PID.TID 0000.0001) %MON dynstat_salt_del2            =   6.2892995520620E-06
(PID.TID 0000.0001) %MON advcfl_uvel_max              =   3.9368638999025E-03
(PID.TID 0000.0001) %MON advcfl_vvel_max              =   1.5037070425762E-02
(PID.TID 0000.0001) %MON advcfl_wvel_max              =   5.4818269271678E-02
(PID.TID 0000.0001) %MON advcfl_W_hf_max              =   5.4818269271678E-02
(PID.TID 0000.0001) %MON pe_b_mean                    =   3.4239216295731E-09
(PID.TID 0000.0001) %MON ke_max                       =   8.3341456238343E-05
(PID.TID 0000.0001) %MON ke_mean                      =   3.5718721254874E-06
(PID.TID 0000.0001) %MON ke_vol                       =   2.5000000000000E+11
(PID.TID 0000.0001) %MON vort_r_min                   =  -1.1274325543320E-06
(PID.TID 0000.0001) %MON vort_r_max                   =   1.1348510877315E-06
(PID.TID 0000.0001) %MON vort_a_mean                  =   7.2900000000000E-05
(PID.TID 0000.0001) %MON vort_a_sd                    =   2.6218295186134E-07
(PID.TID 0000.0001) %MON vort_p_mean                  =   7.7363265306123E-05
(PID.TID 0000.0001) %MON vort_p_sd                    =   3.0923588714526E-05
(PID.TID 0000.0001) %MON surfExpan_theta_mean         =   1.7359028234790E-13
(PID.TID 0000.0001) %MON surfExpan_salt_mean          =  -3.8073836283736E-17
(PID.TID 0000.0001) // =======================================================
(PID.TID 0000.0001) // End MONITOR dynamic field statistics
(PID.TID 0000.0001) // =======================================================
 cg2d: Sum(rhs),rhsMax =  -1.13686837721616E-13  6.55840593084863E-04
(PID.TID 0000.0001)      cg2d_init_res =   5.45216875604422E-02
(PID.TID 0000.0001)      cg2d_iters(min,last) =      -1      74
(PID.TID 0000.0001)      cg2d_last_res =   6.62826606129918E-12
(PID.TID 0000.0001) // =======================================================
(PID.TID 0000.0001) // Begin MONITOR dynamic field statistics
(PID.TID 0000.0001) // =======================================================
(PID.TID 0000.0001) %MON time_tsnumber                =                     7
(PID.TID 0000.0001) %MON time_secondsf                =   8.4000000000000E+03
(PID.TID 0000.0001) %MON dynstat_eta_max              =   4.0805512378648E-04
(PID.TID 0000.0001) %MON dynstat_eta_min              =  -4.0745065033888E-04
(PID.TID 0000.0001) %MON dynstat_eta_mean             =   4.9732625484467E-18
(PID.TID 0000.0001) %MON dynstat_eta_sd               =   3.7363815446773E-04
(PID.TID 0000.0001) %MON dynstat_eta_del2             =   7.9441996382206E-07
(PID.TID 0000.0001) %MON dynstat_uvel_max             =   4.4541028805400E-03
(PID.TID 0000.0001) %MON dynstat_uvel_min             =  -4.4577194234300E-03
(PID.TID 0000.0001) %MON dynstat_uvel_mean            =  -9.1464927018366E-07
(PID.TID 0000.0001) %MON dynstat_uvel_sd              =   9.0158063397554E-04
(PID.TID 0000.0001) %MON dynstat_uvel_del2            =   1.1645865108062E-06
(PID.TID 0000.0001) %MON dynstat_vvel_max             =   1.4399863118627E-02
(PID.TID 0000.0001) %MON dynstat_vvel_min             =  -1.4398126327596E-02
(PID.TID 0000.0001) %MON dynstat_vvel_mean            =   9.1244584133962E-11
(PID.TID 0000.0001) %MON dynstat_vvel_sd              =   3.0329591237583E-03
(PID.TID 0000.0001) %MON dynstat_vvel_del2            =   4.5237396769201E-06
(PID.TID 0000.0001) %MON dynstat_wvel_max             =   2.6209892908668E-04
(PID.TID 0000.0001) %MON dynstat_wvel_min             =  -2.6269395487980E-04
(PID.TID 0000.0001) %MON dynstat_wvel_mean            =  -3.0179566974881E-20
(PID.TID 0000.0001) %MON dynstat_wvel_sd              =   8.0911673835658E-05
(PID.TID 0000.0001) %MON dynstat_wvel_del2            =   2.7482437777876E-07
(PID.TID 0000.0001) %MON dynstat_theta_max            =   1.7020391872709E+01
(PID.TID 0000.0001) %MON dynstat_theta_min            =   1.6979608188987E+01
(PID.TID 0000.0001) %MON dynstat_theta_mean           =   1.6999999916889E+01
(PID.TID 0000.0001) %MON dynstat_theta_sd             =   1.8684935581608E-02
(PID.TID 0000.0001) %MON dynstat_theta_del2           =   6.2823785272212E-06
(PID.TID 0000.0001) %MON dynstat_salt_max             =   1.7020387109310E+01
(PID.TID 0000.0001) %MON dynstat_salt_min             =   1.6979612982854E+01
(PID.TID 0000.0001) %MON dynstat_salt_mean            =   1.7000000005832E+01
(PID.TID 0000.0001) %MON dynstat_salt_sd              =   1.8685318205427E-02
(PID.TID 0000.0001) %MON dynstat_salt_del2            =   6.2891643440087E-06
(PID.TID 0000.0001) %MON advcfl_uvel_max              =   5.3492633081160E-03
(PID.TID 0000.0001) %MON advcfl_vvel_max              =   1.7279835742353E-02
(PID.TID 0000.0001) %MON advcfl_wvel_max              =   6.3046549171151E-02
(PID.TID 0000.0001) %MON advcfl_W_hf_max              =   6.3046549171151E-02
(PID.TID 0000.0001) %MON pe_b_mean                    =   3.4238241633761E-09
(PID.TID 0000.0001) %MON ke_max                       =   1.1266719852295E-04
(PID.TID 0000.0001) %MON ke_mean                      =   4.8218679403380E-06
(PID.TID 0000.0001) %MON ke_vol                       =   2.5000000000000E+11
(PID.TID 0000.0001) %MON vort_r_min                   =  -1.5322804317001E-06
(PID.TID 0000.0001) %MON vort_r_max                   =   1.5466001793501E-06
(PID.TID 0000.0001) %MON vort_a_mean                  =   7.2900000000000E-05
(PID.TID 0000.0001) %MON vort_a_sd                    =   3.5671784626303E-07
(PID.TID 0000.0001) %MON vort_p_mean                  =   7.7363265306123E-05
(PID.TID 0000.0001) %MON vort_p_sd                    =   3.0924592653742E-05
(PID.TID 0000.0001) %MON surfExpan_theta_mean         =  -1.0933854773949E-13
(PID.TID 0000.0001) %MON surfExpan_salt_mean          =  -3.3804666510484E-17
(PID.TID 0000.0001) // =======================================================
(PID.TID 0000.0001) // End MONITOR dynamic field statistics
(PID.TID 0000.0001) // =======================================================
 cg2d: Sum(rhs),rhsMax =  -1.13686837721616E-13  6.54551202815692E-04
(PID.TID 0000.0001)      cg2d_init_res =   5.36697198832306E-02
(PID.TID 0000.0001)      cg2d_iters(min,last) =      -1      74
(PID.TID 0000.0001)      cg2d_last_res =   7.90269672979282E-12
(PID.TID 0000.0001) // =======================================================
(PID.TID 0000.0001) // Begin MONITOR dynamic field statistics
(PID.TID 0000.0001) // =======================================================
(PID.TID 0000.0001) %MON time_tsnumber                =                     8
(PID.TID 0000.0001) %MON time_secondsf                =   9.6000000000000E+03
(PID.TID 0000.0001) %MON dynstat_eta_max              =   4.0811417972703E-04
(PID.TID 0000.0001) %MON dynstat_eta_min              =  -4.0739052334216E-04
(PID.TID 0000.0001) %MON dynstat_eta_mean             =   1.8812716007233E-17
(PID.TID 0000.0001) %MON dynstat_eta_sd               =   3.7363292195237E-04
(PID.TID 0000.0001) %MON dynstat_eta_del2             =   7.9387533170296E-07
(PID.TID 0000.0001) %MON dynstat_uvel_max             =   5.7863944914622E-03
(PID.TID 0000.0001) %MON dynstat_uvel_min             =  -5.7901699115950E-03
(PID.TID 0000.0001) %MON dynstat_uvel_mean            =  -9.1461663779196E-07
(PID.TID 0000.0001) %MON dynstat_uvel_sd              =   1.1720131138002E-03
(PID.TID 0000.0001) %MON dynstat_uvel_del2            =   1.5146365676162E-06
(PID.TID 0000.0001) %MON dynstat_vvel_max             =   1.6169353381512E-02
(PID.TID 0000.0001) %MON dynstat_vvel_min             =  -1.6167397742185E-02
(PID.TID 0000.0001) %MON dynstat_vvel_mean            =   5.6558963011740E-11
(PID.TID 0000.0001) %MON dynstat_vvel_sd              =   3.4007230371384E-03
(PID.TID 0000.0001) %MON dynstat_vvel_del2            =   5.0849332382683E-06
(PID.TID 0000.0001) %MON dynstat_wvel_max             =   2.9457713978968E-04
(PID.TID 0000.0001) %MON dynstat_wvel_min             =  -2.9524967912764E-04
(PID.TID 0000.0001) %MON dynstat_wvel_mean            =   2.0937074588824E-19
(PID.TID 0000.0001) %MON dynstat_wvel_sd              =   9.0849141319190E-05
(PID.TID 0000.0001) %MON dynstat_wvel_del2            =   3.0910462800410E-07
(PID.TID 0000.0001) %MON dynstat_theta_max            =   1.7020391872709E+01
(PID.TID 0000.0001) %MON dynstat_theta_min            =   1.6979608188987E+01
(PID.TID 0000.0001) %MON dynstat_theta_mean           =   1.6999999916890E+01
(PID.TID 0000.0001) %MON dynstat_theta_sd             =   1.8684826179502E-02
(PID.TID 0000.0001) %MON dynstat_theta_del2           =   6.2808620255065E-06
(PID.TID 0000.0001) %MON dynstat_salt_max             =   1.7020387109310E+01
(PID.TID 0000.0001) %MON dynstat_salt_min             =   1.6979612982854E+01
(PID.TID 0000.0001) %MON dynstat_salt_mean            =   1.7000000005832E+01
(PID.TID 0000.0001) %MON dynstat_salt_sd              =   1.8685312777591E-02
(PID.TID 0000.0001) %MON dynstat_salt_del2            =   6.2889939696799E-06
(PID.TID 0000.0001) %MON advcfl_uvel_max              =   6.9482038939140E-03
(PID.TID 0000.0001) %MON advcfl_vvel_max              =   1.9403224057814E-02
(PID.TID 0000.0001) %MON advcfl_wvel_max              =   7.0859922990633E-02
(PID.TID 0000.0001) %MON advcfl_W_hf_max              =   7.0859922990633E-02
(PID.TID 0000.0001) %MON pe_b_mean                    =   3.4237282679925E-09
(PID.TID 0000.0001) %MON ke_max                       =   1.4598078881578E-04
(PID.TID 0000.0001) %MON ke_mean                      =   6.2379680318770E-06
(PID.TID 0000.0001) %MON ke_vol                       =   2.5000000000000E+11
(PID.TID 0000.0001) %MON vort_r_min                   =  -1.9902495620079E-06
(PID.TID 0000.0001) %MON vort_r_max                   =   2.0150853206879E-06
(PID.TID 0000.0001) %MON vort_a_mean                  =   7.2900000000000E-05
(PID.TID 0000.0001) %MON vort_a_sd                    =   4.6393033991610E-07
(PID.TID 0000.0001) %MON vort_p_mean                  =   7.7363265306123E-05
(PID.TID 0000.0001) %MON vort_p_sd                    =   3.0926102299332E-05
(PID.TID 0000.0001) %MON surfExpan_theta_mean         =  -1.1123473166101E-13
(PID.TID 0000.0001) %MON surfExpan_salt_mean          =  -2.6267513963951E-17
(PID.TID 0000.0001) // =======================================================
(PID.TID 0000.0001) // End MONITOR dynamic field statistics
(PID.TID 0000.0001) // =======================================================
 cg2d: Sum(rhs),rhsMax =  -1.70530256582424E-13  6.52585325936398E-04
(PID.TID 0000.0001)      cg2d_init_res =   5.06745999142460E-02
(PID.TID 0000.0001)      cg2d_iters(min,last) =      -1      74
(PID.TID 0000.0001)      cg2d_last_res =   9.34884789093772E-12
(PID.TID 0000.0001) // =======================================================
(PID.TID 0000.0001) // Begin MONITOR dynamic field statistics
(PID.TID 0000.0001) // =======================================================
(PID.TID 0000.0001) %MON time_tsnumber                =                     9
(PID.TID 0000.0001) %MON time_secondsf                =   1.0800000000000E+04
(PID.TID 0000.0001) %MON dynstat_eta_max              =   4.0815767488064E-04
(PID.TID 0000.0001) %MON dynstat_eta_min              =  -4.0734708405388E-04
(PID.TID 0000.0001) %MON dynstat_eta_mean             =   2.1886080503464E-17
(PID.TID 0000.0001) %MON dynstat_eta_sd               =   3.7362633049508E-04
(PID.TID 0000.0001) %MON dynstat_eta_del2             =   7.9316521868633E-07
(PID.TID 0000.0001) %MON dynstat_uvel_max             =   7.2635711349494E-03
(PID.TID 0000.0001) %MON dynstat_uvel_min             =  -7.2675467390527E-03
(PID.TID 0000.0001) %MON dynstat_uvel_mean            =  -9.1461221587483E-07
(PID.TID 0000.0001) %MON dynstat_uvel_sd              =   1.4721669411541E-03
(PID.TID 0000.0001) %MON dynstat_uvel_del2            =   1.9040104367878E-06
(PID.TID 0000.0001) %MON dynstat_vvel_max             =   1.7826816784146E-02
(PID.TID 0000.0001) %MON dynstat_vvel_min             =  -1.7824654614637E-02
(PID.TID 0000.0001) %MON dynstat_vvel_mean            =   6.0010090591475E-11
(PID.TID 0000.0001) %MON dynstat_vvel_sd              =   3.7432352835964E-03
(PID.TID 0000.0001) %MON dynstat_vvel_del2            =   5.6129972821463E-06
(PID.TID 0000.0001) %MON dynstat_wvel_max             =   3.2510467387691E-04
(PID.TID 0000.0001) %MON dynstat_wvel_min             =  -3.2585211282927E-04
(PID.TID 0000.0001) %MON dynstat_wvel_mean            =  -1.8484984772115E-19
(PID.TID 0000.0001) %MON dynstat_wvel_sd              =   1.0015807749551E-04
(PID.TID 0000.0001) %MON dynstat_wvel_del2            =   3.4141734778509E-07
(PID.TID 0000.0001) %MON dynstat_theta_max            =   1.7020391872709E+01
(PID.TID 0000.0001) %MON dynstat_theta_min            =   1.6979608188987E+01
(PID.TID 0000.0001) %MON dynstat_theta_mean           =   1.6999999916891E+01
(PID.TID 0000.0001) %MON dynstat_theta_sd             =   1.8684704063934E-02
(PID.TID 0000.0001) %MON dynstat_theta_del2           =   6.2795056318139E-06
(PID.TID 0000.0001) %MON dynstat_salt_max             =   1.7020387109310E+01
(PID.TID 0000.0001) %MON dynstat_salt_min             =   1.6979612982854E+01
(PID.TID 0000.0001) %MON dynstat_salt_mean            =   1.7000000005832E+01
(PID.TID 0000.0001) %MON dynstat_salt_sd              =   1.8685305965674E-02
(PID.TID 0000.0001) %MON dynstat_salt_del2            =   6.2887885964438E-06
(PID.TID 0000.0001) %MON advcfl_uvel_max              =   8.7210560868632E-03
(PID.TID 0000.0001) %MON advcfl_vvel_max              =   2.1392180140976E-02
(PID.TID 0000.0001) %MON advcfl_wvel_max              =   7.8204507079024E-02
(PID.TID 0000.0001) %MON advcfl_W_hf_max              =   7.8204507079024E-02
(PID.TID 0000.0001) %MON pe_b_mean                    =   3.4236074694318E-09
(PID.TID 0000.0001) %MON ke_max                       =   1.8304992508462E-04
(PID.TID 0000.0001) %MON ke_mean                      =   7.8093071559844E-06
(PID.TID 0000.0001) %MON ke_vol                       =   2.5000000000000E+11
(PID.TID 0000.0001) %MON vort_r_min                   =  -2.4975276624408E-06
(PID.TID 0000.0001) %MON vort_r_max                   =   2.5373588365916E-06
(PID.TID 0000.0001) %MON vort_a_mean                  =   7.2900000000000E-05
(PID.TID 0000.0001) %MON vort_a_sd                    =   5.8305366077268E-07
(PID.TID 0000.0001) %MON vort_p_mean                  =   7.7363265306122E-05
(PID.TID 0000.0001) %MON vort_p_sd                    =   3.0928242138225E-05
(PID.TID 0000.0001) %MON surfExpan_theta_mean         =  -1.2971456444552E-13
(PID.TID 0000.0001) %MON surfExpan_salt_mean          =  -1.4513338753019E-17
(PID.TID 0000.0001) // =======================================================
(PID.TID 0000.0001) // End MONITOR dynamic field statistics
(PID.TID 0000.0001) // =======================================================
 cg2d: Sum(rhs),rhsMax =  -1.70530256582424E-13  6.49789737400069E-04
(PID.TID 0000.0001)      cg2d_init_res =   4.83485943642983E-02
(PID.TID 0000.0001)      cg2d_iters(min,last) =      -1      75
(PID.TID 0000.0001)      cg2d_last_res =   7.27285355931634E-12
(PID.TID 0000.0001) // =======================================================
(PID.TID 0000.0001) // Begin MONITOR dynamic field statistics
(PID.TID 0000.0001) // =======================================================
(PID.TID 0000.0001) %MON time_tsnumber                =                    10
(PID.TID 0000.0001) %MON time_secondsf                =   1.2000000000000E+04
(PID.TID 0000.0001) %MON dynstat_eta_max              =   4.0817701488327E-04
(PID.TID 0000.0001) %MON dynstat_eta_min              =  -4.0732775448884E-04
(PID.TID 0000.0001) %MON dynstat_eta_mean             =   1.5646219253540E-17
(PID.TID 0000.0001) %MON dynstat_eta_sd               =   3.7361760559737E-04
(PID.TID 0000.0001) %MON dynstat_eta_del2             =   7.9225659496780E-07
(PID.TID 0000.0001) %MON dynstat_uvel_max             =   8.8738926203443E-03
(PID.TID 0000.0001) %MON dynstat_uvel_min             =  -8.8781123426843E-03
(PID.TID 0000.0001) %MON dynstat_uvel_mean            =  -9.1460605780794E-07
(PID.TID 0000.0001) %MON dynstat_uvel_sd              =   1.7997788201588E-03
(PID.TID 0000.0001) %MON dynstat_uvel_del2            =   2.3301203864246E-06
(PID.TID 0000.0001) %MON dynstat_vvel_max             =   1.9360393271006E-02
(PID.TID 0000.0001) %MON dynstat_vvel_min             =  -1.9358039346399E-02
(PID.TID 0000.0001) %MON dynstat_vvel_mean            =   7.9371864142570E-11
(PID.TID 0000.0001) %MON dynstat_vvel_sd              =   4.0579743531460E-03
(PID.TID 0000.0001) %MON dynstat_vvel_del2            =   6.1044695952989E-06
(PID.TID 0000.0001) %MON dynstat_wvel_max             =   3.5346872243985E-04
(PID.TID 0000.0001) %MON dynstat_wvel_min             =  -3.5428836861910E-04
(PID.TID 0000.0001) %MON dynstat_wvel_mean            =   3.7724458718602E-21
(PID.TID 0000.0001) %MON dynstat_wvel_sd              =   1.0877395171771E-04
(PID.TID 0000.0001) %MON dynstat_wvel_del2            =   3.7154400226448E-07
(PID.TID 0000.0001) %MON dynstat_theta_max            =   1.7020391872709E+01
(PID.TID 0000.0001) %MON dynstat_theta_min            =   1.6979608188987E+01
(PID.TID 0000.0001) %MON dynstat_theta_mean           =   1.6999999916891E+01
(PID.TID 0000.0001) %MON dynstat_theta_sd             =   1.8684569672739E-02
(PID.TID 0000.0001) %MON dynstat_theta_del2           =   6.2784084145085E-06
(PID.TID 0000.0001) %MON dynstat_salt_max             =   1.7020387109310E+01
(PID.TID 0000.0001) %MON dynstat_salt_min             =   1.6979612982854E+01
(PID.TID 0000.0001) %MON dynstat_salt_mean            =   1.7000000005832E+01
(PID.TID 0000.0001) %MON dynstat_salt_sd              =   1.8685297645382E-02
(PID.TID 0000.0001) %MON dynstat_salt_del2            =   6.2885506436006E-06
(PID.TID 0000.0001) %MON advcfl_uvel_max              =   1.0653734811221E-02
(PID.TID 0000.0001) %MON advcfl_vvel_max              =   2.3232471925207E-02
(PID.TID 0000.0001) %MON advcfl_wvel_max              =   8.5029208468584E-02
(PID.TID 0000.0001) %MON advcfl_W_hf_max              =   8.5029208468584E-02
(PID.TID 0000.0001) %MON pe_b_mean                    =   3.4234475755820E-09
(PID.TID 0000.0001) %MON ke_max                       =   2.2360782202091E-04
(PID.TID 0000.0001) %MON ke_mean                      =   9.5238371273778E-06
(PID.TID 0000.0001) %MON ke_vol                       =   2.5000000000000E+11
(PID.TID 0000.0001) %MON vort_r_min                   =  -3.0498721210977E-06
(PID.TID 0000.0001) %MON vort_r_max                   =   3.1100991456246E-06
(PID.TID 0000.0001) %MON vort_a_mean                  =   7.2900000000000E-05
(PID.TID 0000.0001) %MON vort_a_sd                    =   7.1323703246291E-07
(PID.TID 0000.0001) %MON vort_p_mean                  =   7.7363265306123E-05
(PID.TID 0000.0001) %MON vort_p_sd                    =   3.0931137246830E-05
(PID.TID 0000.0001) %MON surfExpan_theta_mean         =  -1.5125307583932E-13
(PID.TID 0000.0001) %MON surfExpan_salt_mean          =   1.3293065537212E-18
(PID.TID 0000.0001) // =======================================================
(PID.TID 0000.0001) // End MONITOR dynamic field statistics
(PID.TID 0000.0001) // =======================================================
 cg2d: Sum(rhs),rhsMax =  -1.42108547152020E-13  6.46015531267794E-04
(PID.TID 0000.0001)      cg2d_init_res =   5.18134392377628E-02
(PID.TID 0000.0001)      cg2d_iters(min,last) =      -1      75
(PID.TID 0000.0001)      cg2d_last_res =   8.24021328380495E-12
(PID.TID 0000.0001) // =======================================================
(PID.TID 0000.0001) // Begin MONITOR dynamic field statistics
(PID.TID 0000.0001) // =======================================================
(PID.TID 0000.0001) %MON time_tsnumber                =                    11
(PID.TID 0000.0001) %MON time_secondsf                =   1.3200000000000E+04
(PID.TID 0000.0001) %MON dynstat_eta_max              =   4.0816425564180E-04
(PID.TID 0000.0001) %MON dynstat_eta_min              =  -4.0734050213186E-04
(PID.TID 0000.0001) %MON dynstat_eta_mean             =   2.1234154701233E-17
(PID.TID 0000.0001) %MON dynstat_eta_sd               =   3.7360639635417E-04
(PID.TID 0000.0001) %MON dynstat_eta_del2             =   7.9111844809157E-07
(PID.TID 0000.0001) %MON dynstat_uvel_max             =   1.0604497975396E-02
(PID.TID 0000.0001) %MON dynstat_uvel_min             =  -1.0609007743513E-02
(PID.TID 0000.0001) %MON dynstat_uvel_mean            =  -9.1459820421903E-07
(PID.TID 0000.0001) %MON dynstat_uvel_sd              =   2.1523785861178E-03
(PID.TID 0000.0001) %MON dynstat_uvel_del2            =   2.7901582092730E-06
(PID.TID 0000.0001) %MON dynstat_vvel_max             =   2.0759015350881E-02
(PID.TID 0000.0001) %MON dynstat_vvel_min             =  -2.0756487052050E-02
(PID.TID 0000.0001) %MON dynstat_vvel_mean            =   1.0140201561041E-10
(PID.TID 0000.0001) %MON dynstat_vvel_sd              =   4.3426315833658E-03
(PID.TID 0000.0001) %MON dynstat_vvel_del2            =   6.5561595643884E-06
(PID.TID 0000.0001) %MON dynstat_wvel_max             =   3.7947061198881E-04
(PID.TID 0000.0001) %MON dynstat_wvel_min             =  -3.8035974469431E-04
(PID.TID 0000.0001) %MON dynstat_wvel_mean            =   1.0751470734801E-19
(PID.TID 0000.0001) %MON dynstat_wvel_sd              =   1.1663729762500E-04
(PID.TID 0000.0001) %MON dynstat_wvel_del2            =   3.9928084543425E-07
(PID.TID 0000.0001) %MON dynstat_theta_max            =   1.7020391872709E+01
(PID.TID 0000.0001) %MON dynstat_theta_min            =   1.6979608188987E+01
(PID.TID 0000.0001) %MON dynstat_theta_mean           =   1.6999999916892E+01
(PID.TID 0000.0001) %MON dynstat_theta_sd             =   1.8684423534502E-02
(PID.TID 0000.0001) %MON dynstat_theta_del2           =   6.2776684266541E-06
(PID.TID 0000.0001) %MON dynstat_salt_max             =   1.7020387109310E+01
(PID.TID 0000.0001) %MON dynstat_salt_min             =   1.6979612982854E+01
(PID.TID 0000.0001) %MON dynstat_salt_mean            =   1.7000000005832E+01
(PID.TID 0000.0001) %MON dynstat_salt_sd              =   1.8685287704422E-02
(PID.TID 0000.0001) %MON dynstat_salt_del2            =   6.2882851819478E-06
(PID.TID 0000.0001) %MON advcfl_uvel_max              =   1.2730809292216E-02
(PID.TID 0000.0001) %MON advcfl_vvel_max              =   2.4910818421058E-02
(PID.TID 0000.0001) %MON advcfl_wvel_max              =   9.1286338726635E-02
(PID.TID 0000.0001) %MON advcfl_W_hf_max              =   9.1286338726635E-02
(PID.TID 0000.0001) %MON pe_b_mean                    =   3.4232421587054E-09
(PID.TID 0000.0001) %MON ke_max                       =   2.6735302270434E-04
(PID.TID 0000.0001) %MON ke_mean                      =   1.1368422760280E-05
(PID.TID 0000.0001) %MON ke_vol                       =   2.5000000000000E+11
(PID.TID 0000.0001) %MON vort_r_min                   =  -3.6426518662173E-06
(PID.TID 0000.0001) %MON vort_r_max                   =   3.7293956353998E-06
(PID.TID 0000.0001) %MON vort_a_mean                  =   7.2900000000000E-05
(PID.TID 0000.0001) %MON vort_a_sd                    =   8.5355210438753E-07
(PID.TID 0000.0001) %MON vort_p_mean                  =   7.7363265306122E-05
(PID.TID 0000.0001) %MON vort_p_sd                    =   3.0934908394844E-05
(PID.TID 0000.0001) %MON surfExpan_theta_mean         =  -1.6626334799414E-13
(PID.TID 0000.0001) %MON surfExpan_salt_mean          =   2.0939064349079E-17
(PID.TID 0000.0001) // =======================================================
(PID.TID 0000.0001) // End MONITOR dynamic field statistics
(PID.TID 0000.0001) // =======================================================
 cg2d: Sum(rhs),rhsMax =   0.00000000000000E+00  6.44043893498098E-04
(PID.TID 0000.0001)      cg2d_init_res =   6.51834796162388E-02
(PID.TID 0000.0001)      cg2d_iters(min,last) =      -1      75
(PID.TID 0000.0001)      cg2d_last_res =   9.54656680953108E-12
(PID.TID 0000.0001) // =======================================================
(PID.TID 0000.0001) // Begin MONITOR dynamic field statistics
(PID.TID 0000.0001) // =======================================================
(PID.TID 0000.0001) %MON time_tsnumber                =                    12
(PID.TID 0000.0001) %MON time_secondsf                =   1.4400000000000E+04
(PID.TID 0000.0001) %MON dynstat_eta_max              =   4.0811179789141E-04
(PID.TID 0000.0001) %MON dynstat_eta_min              =  -4.0739295091034E-04
(PID.TID 0000.0001) %MON dynstat_eta_mean             =   7.7672302722931E-18
(PID.TID 0000.0001) %MON dynstat_eta_sd               =   3.7359241257197E-04
(PID.TID 0000.0001) %MON dynstat_eta_del2             =   7.8972636988013E-07
(PID.TID 0000.0001) %MON dynstat_uvel_max             =   1.2441854720085E-02
(PID.TID 0000.0001) %MON dynstat_uvel_min             =  -1.2446362989153E-02
(PID.TID 0000.0001) %MON dynstat_uvel_mean            =  -9.1458958488671E-07
(PID.TID 0000.0001) %MON dynstat_uvel_sd              =   2.5273079752065E-03
(PID.TID 0000.0001) %MON dynstat_uvel_del2            =   3.2811109755920E-06
(PID.TID 0000.0001) %MON dynstat_vvel_max             =   2.2012514904591E-02
(PID.TID 0000.0001) %MON dynstat_vvel_min             =  -2.2009832129542E-02
(PID.TID 0000.0001) %MON dynstat_vvel_mean            =   1.2588538095656E-10
(PID.TID 0000.0001) %MON dynstat_vvel_sd              =   4.5951295238570E-03
(PID.TID 0000.0001) %MON dynstat_vvel_del2            =   6.9651882206913E-06
(PID.TID 0000.0001) %MON dynstat_wvel_max             =   4.0292839165483E-04
(PID.TID 0000.0001) %MON dynstat_wvel_min             =  -4.0388443159181E-04
(PID.TID 0000.0001) %MON dynstat_wvel_mean            =   3.7724458718602E-20
(PID.TID 0000.0001) %MON dynstat_wvel_sd              =   1.2369429036051E-04
(PID.TID 0000.0001) %MON dynstat_wvel_del2            =   4.2444234120698E-07
(PID.TID 0000.0001) %MON dynstat_theta_max            =   1.7020391872709E+01
(PID.TID 0000.0001) %MON dynstat_theta_min            =   1.6979608188987E+01
(PID.TID 0000.0001) %MON dynstat_theta_mean           =   1.6999999916894E+01
(PID.TID 0000.0001) %MON dynstat_theta_sd             =   1.8684266276463E-02
(PID.TID 0000.0001) %MON dynstat_theta_del2           =   6.2773800087227E-06
(PID.TID 0000.0001) %MON dynstat_salt_max             =   1.7020387109310E+01
(PID.TID 0000.0001) %MON dynstat_salt_min             =   1.6979612982854E+01
(PID.TID 0000.0001) %MON dynstat_salt_mean            =   1.7000000005832E+01
(PID.TID 0000.0001) %MON dynstat_salt_sd              =   1.8685276043283E-02
(PID.TID 0000.0001) %MON dynstat_salt_del2            =   6.2880003309386E-06
(PID.TID 0000.0001) %MON advcfl_uvel_max              =   1.4935635586984E-02
(PID.TID 0000.0001) %MON advcfl_vvel_max              =   2.6415017885509E-02
(PID.TID 0000.0001) %MON advcfl_wvel_max              =   9.6932263582035E-02
(PID.TID 0000.0001) %MON advcfl_W_hf_max              =   9.6932263582035E-02
(PID.TID 0000.0001) %MON pe_b_mean                    =   3.4229859051862E-09
(PID.TID 0000.0001) %MON ke_max                       =   3.1394990237745E-04
(PID.TID 0000.0001) %MON ke_mean                      =   1.3328946582699E-05
(PID.TID 0000.0001) %MON ke_vol                       =   2.5000000000000E+11
(PID.TID 0000.0001) %MON vort_r_min                   =  -4.2708981325591E-06
(PID.TID 0000.0001) %MON vort_r_max                   =   4.3907816612487E-06
(PID.TID 0000.0001) %MON vort_a_mean                  =   7.2900000000000E-05
(PID.TID 0000.0001) %MON vort_a_sd                    =   1.0029994299995E-06
(PID.TID 0000.0001) %MON vort_p_mean                  =   7.7363265306123E-05
(PID.TID 0000.0001) %MON vort_p_sd                    =   3.0939667144874E-05
(PID.TID 0000.0001) %MON surfExpan_theta_mean         =  -1.7127181610719E-13
(PID.TID 0000.0001) %MON surfExpan_salt_mean          =   4.3868392507473E-17
(PID.TID 0000.0001) // =======================================================
(PID.TID 0000.0001) // End MONITOR dynamic field statistics
(PID.TID 0000.0001) // =======================================================
 Computing Diagnostic #    147  momKE        Counter:      12   Parms: SMR     MR      
 Computing Diagnostic #    148  momHDiv      Counter:      12   Parms: SMR     MR      
 Computing Diagnostic #    149  momVort3     Counter:      12   Parms: SZR     MR      
 Computing Diagnostic #    150  Strain       Counter:      12   Parms: SZR     MR      
 Computing Diagnostic #    151  Tension      Counter:      12   Parms: SMR     MR      
 Computing Diagnostic #    123  VISCAHD      Counter:      12   Parms: SM      MR      
 Computing Diagnostic #    124  VISCA4D      Counter:      12   Parms: SM      MR      
 Computing Diagnostic #    121  VISCAHZ      Counter:      12   Parms: SZ      MR      
 Computing Diagnostic #    122  VISCA4Z      Counter:      12   Parms: SZ      MR      
 Computing Diagnostic #    129  VAHDMAX      Counter:      12   Parms: SM      MR      
 Computing Diagnostic #    130  VA4DMAX      Counter:      12   Parms: SM      MR      
 Computing Diagnostic #    127  VAHZMAX      Counter:      12   Parms: SZ      MR      
 Computing Diagnostic #    128  VA4ZMAX      Counter:      12   Parms: SZ      MR      
 Computing Diagnostic #    133  VAHDMIN      Counter:      12   Parms: SM      MR      
 Computing Diagnostic #    134  VA4DMIN      Counter:      12   Parms: SM      MR      
 Computing Diagnostic #    131  VAHZMIN      Counter:      12   Parms: SZ      MR      
 Computing Diagnostic #    132  VA4ZMIN      Counter:      12   Parms: SZ      MR      
 Computing Diagnostic #    137  VAHDLTH      Counter:      12   Parms: SM      MR      
 Computing Diagnostic #    138  VA4DLTH      Counter:      12   Parms: SM      MR      
 Computing Diagnostic #    135  VAHZLTH      Counter:      12   Parms: SZ      MR      
 Computing Diagnostic #    136  VA4ZLTH      Counter:      12   Parms: SZ      MR      
 Computing Diagnostic #    141  VAHDLTHD     Counter:      12   Parms: SM      MR      
 Computing Diagnostic #    142  VA4DLTHD     Counter:      12   Parms: SM      MR      
 Computing Diagnostic #    139  VAHZLTHD     Counter:      12   Parms: SZ      MR      
 Computing Diagnostic #    140  VA4ZLTHD     Counter:      12   Parms: SZ      MR      
 Computing Diagnostic #    145  VAHDSMAG     Counter:      12   Parms: SM      MR      
 Computing Diagnostic #    146  VA4DSMAG     Counter:      12   Parms: SM      MR      
 Computing Diagnostic #    143  VAHZSMAG     Counter:      12   Parms: SZ      MR      
 Computing Diagnostic #    144  VA4ZSMAG     Counter:      12   Parms: SZ      MR      
(PID.TID 0000.0001) %CHECKPOINT        12 ckptA
(PID.TID 0000.0001)   Seconds in section "ALL                    [THE_MODEL_MAIN]":
(PID.TID 0000.0001)           User time:   12.830000000000000
(PID.TID 0000.0001)         System time:  0.32000000000000001
(PID.TID 0000.0001)     Wall clock time:   31.413031101226807
(PID.TID 0000.0001)          No. starts:           1
(PID.TID 0000.0001)           No. stops:           1
(PID.TID 0000.0001)   Seconds in section "INITIALISE_FIXED       [THE_MODEL_MAIN]":
(PID.TID 0000.0001)           User time:  0.38000000000000000
(PID.TID 0000.0001)         System time:  4.00000000000000008E-002
(PID.TID 0000.0001)     Wall clock time:   5.0447311401367188
(PID.TID 0000.0001)          No. starts:           1
(PID.TID 0000.0001)           No. stops:           1
(PID.TID 0000.0001)   Seconds in section "THE_MAIN_LOOP          [THE_MODEL_MAIN]":
(PID.TID 0000.0001)           User time:   12.449999999999999
(PID.TID 0000.0001)         System time:  0.28000000000000003
(PID.TID 0000.0001)     Wall clock time:   26.364799022674561
(PID.TID 0000.0001)          No. starts:           1
(PID.TID 0000.0001)           No. stops:           1
(PID.TID 0000.0001)   Seconds in section "INITIALISE_VARIA    [THE_MAIN_LOOP]":
(PID.TID 0000.0001)           User time:  0.29000000000000004
(PID.TID 0000.0001)         System time:  4.99999999999999958E-002
(PID.TID 0000.0001)     Wall clock time:   1.9060468673706055
(PID.TID 0000.0001)          No. starts:           1
(PID.TID 0000.0001)           No. stops:           1
(PID.TID 0000.0001)   Seconds in section "MAIN LOOP           [THE_MAIN_LOOP]":
(PID.TID 0000.0001)           User time:   12.160000000000000
(PID.TID 0000.0001)         System time:  0.23000000000000001
(PID.TID 0000.0001)     Wall clock time:   24.458708047866821
(PID.TID 0000.0001)          No. starts:           1
(PID.TID 0000.0001)           No. stops:           1
(PID.TID 0000.0001)   Seconds in section "MAIN_DO_LOOP        [THE_MAIN_LOOP]":
(PID.TID 0000.0001)           User time:   12.160000000000000
(PID.TID 0000.0001)         System time:  0.23000000000000001
(PID.TID 0000.0001)     Wall clock time:   24.458584308624268
(PID.TID 0000.0001)          No. starts:          12
(PID.TID 0000.0001)           No. stops:          12
(PID.TID 0000.0001)   Seconds in section "FORWARD_STEP        [MAIN_DO_LOOP]":
(PID.TID 0000.0001)           User time:   12.160000000000000
(PID.TID 0000.0001)         System time:  0.23000000000000001
(PID.TID 0000.0001)     Wall clock time:   24.458350419998169
(PID.TID 0000.0001)          No. starts:          12
(PID.TID 0000.0001)           No. stops:          12
(PID.TID 0000.0001)   Seconds in section "DO_STATEVARS_DIAGS  [FORWARD_STEP]":
(PID.TID 0000.0001)           User time:  1.00000000000015632E-002
(PID.TID 0000.0001)         System time:   0.0000000000000000
(PID.TID 0000.0001)     Wall clock time:  6.41059875488281250E-003
(PID.TID 0000.0001)          No. starts:          36
(PID.TID 0000.0001)           No. stops:          36
(PID.TID 0000.0001)   Seconds in section "LOAD_FIELDS_DRIVER  [FORWARD_STEP]":
(PID.TID 0000.0001)           User time:   0.0000000000000000
(PID.TID 0000.0001)         System time:   0.0000000000000000
(PID.TID 0000.0001)     Wall clock time:  3.57389450073242188E-004
(PID.TID 0000.0001)          No. starts:          12
(PID.TID 0000.0001)           No. stops:          12
(PID.TID 0000.0001)   Seconds in section "EXTERNAL_FLDS_LOAD [LOAD_FLDS_DRIVER]":
(PID.TID 0000.0001)           User time:   0.0000000000000000
(PID.TID 0000.0001)         System time:   0.0000000000000000
(PID.TID 0000.0001)     Wall clock time:  1.23977661132812500E-004
(PID.TID 0000.0001)          No. starts:          12
(PID.TID 0000.0001)           No. stops:          12
(PID.TID 0000.0001)   Seconds in section "DO_ATMOSPHERIC_PHYS [FORWARD_STEP]":
(PID.TID 0000.0001)           User time:   0.0000000000000000
(PID.TID 0000.0001)         System time:   0.0000000000000000
(PID.TID 0000.0001)     Wall clock time:  1.16825103759765625E-004
(PID.TID 0000.0001)          No. starts:          12
(PID.TID 0000.0001)           No. stops:          12
(PID.TID 0000.0001)   Seconds in section "DO_OCEANIC_PHYS     [FORWARD_STEP]":
(PID.TID 0000.0001)           User time:  0.25999999999999623
(PID.TID 0000.0001)         System time:   0.0000000000000000
(PID.TID 0000.0001)     Wall clock time:  0.26530623435974121
(PID.TID 0000.0001)          No. starts:          12
(PID.TID 0000.0001)           No. stops:          12
(PID.TID 0000.0001)   Seconds in section "DYNAMICS            [FORWARD_STEP]":
(PID.TID 0000.0001)           User time:   4.9400000000000013
(PID.TID 0000.0001)         System time:   0.0000000000000000
(PID.TID 0000.0001)     Wall clock time:   4.9604754447937012
(PID.TID 0000.0001)          No. starts:          12
(PID.TID 0000.0001)           No. stops:          12
(PID.TID 0000.0001)   Seconds in section "SOLVE_FOR_PRESSURE  [FORWARD_STEP]":
(PID.TID 0000.0001)           User time:  0.61999999999999922
(PID.TID 0000.0001)         System time:   0.0000000000000000
(PID.TID 0000.0001)     Wall clock time:  0.60530781745910645
(PID.TID 0000.0001)          No. starts:          12
(PID.TID 0000.0001)           No. stops:          12
(PID.TID 0000.0001)   Seconds in section "MOM_CORRECTION_STEP [FORWARD_STEP]":
(PID.TID 0000.0001)           User time:  8.00000000000000711E-002
(PID.TID 0000.0001)         System time:   0.0000000000000000
(PID.TID 0000.0001)     Wall clock time:  8.91709327697753906E-002
(PID.TID 0000.0001)          No. starts:          12
(PID.TID 0000.0001)           No. stops:          12
(PID.TID 0000.0001)   Seconds in section "INTEGR_CONTINUITY   [FORWARD_STEP]":
(PID.TID 0000.0001)           User time:  0.12000000000000099
(PID.TID 0000.0001)         System time:   0.0000000000000000
(PID.TID 0000.0001)     Wall clock time:  0.12262964248657227
(PID.TID 0000.0001)          No. starts:          12
(PID.TID 0000.0001)           No. stops:          12
(PID.TID 0000.0001)   Seconds in section "BLOCKING_EXCHANGES  [FORWARD_STEP]":
(PID.TID 0000.0001)           User time:  0.21999999999999709
(PID.TID 0000.0001)         System time:   0.0000000000000000
(PID.TID 0000.0001)     Wall clock time:  0.21490073204040527
(PID.TID 0000.0001)          No. starts:          24
(PID.TID 0000.0001)           No. stops:          24
(PID.TID 0000.0001)   Seconds in section "THERMODYNAMICS      [FORWARD_STEP]":
(PID.TID 0000.0001)           User time:   3.9400000000000013
(PID.TID 0000.0001)         System time:   0.0000000000000000
(PID.TID 0000.0001)     Wall clock time:   3.9461026191711426
(PID.TID 0000.0001)          No. starts:          12
(PID.TID 0000.0001)           No. stops:          12
(PID.TID 0000.0001)   Seconds in section "TRC_CORRECTION_STEP [FORWARD_STEP]":
(PID.TID 0000.0001)           User time:  4.99999999999989342E-002
(PID.TID 0000.0001)         System time:   0.0000000000000000
(PID.TID 0000.0001)     Wall clock time:  4.98478412628173828E-002
(PID.TID 0000.0001)          No. starts:          12
(PID.TID 0000.0001)           No. stops:          12
(PID.TID 0000.0001)   Seconds in section "DO_STATEVARS_TAVE   [FORWARD_STEP]":
(PID.TID 0000.0001)           User time:   0.0000000000000000
(PID.TID 0000.0001)         System time:   0.0000000000000000
(PID.TID 0000.0001)     Wall clock time:  1.18017196655273438E-004
(PID.TID 0000.0001)          No. starts:          12
(PID.TID 0000.0001)           No. stops:          12
(PID.TID 0000.0001)   Seconds in section "MONITOR             [FORWARD_STEP]":
(PID.TID 0000.0001)           User time:   1.1200000000000010
(PID.TID 0000.0001)         System time:   0.0000000000000000
(PID.TID 0000.0001)     Wall clock time:   1.1310770511627197
(PID.TID 0000.0001)          No. starts:          12
(PID.TID 0000.0001)           No. stops:          12
(PID.TID 0000.0001)   Seconds in section "DO_THE_MODEL_IO     [FORWARD_STEP]":
(PID.TID 0000.0001)           User time:  0.78000000000000114
(PID.TID 0000.0001)         System time:  0.23000000000000001
(PID.TID 0000.0001)     Wall clock time:   13.041493892669678
(PID.TID 0000.0001)          No. starts:          12
(PID.TID 0000.0001)           No. stops:          12
(PID.TID 0000.0001)   Seconds in section "DO_WRITE_PICKUP     [FORWARD_STEP]":
(PID.TID 0000.0001)           User time:  1.99999999999995737E-002
(PID.TID 0000.0001)         System time:   0.0000000000000000
(PID.TID 0000.0001)     Wall clock time:  2.27477550506591797E-002
(PID.TID 0000.0001)          No. starts:          12
(PID.TID 0000.0001)           No. stops:          12
(PID.TID 0000.0001) // ======================================================
(PID.TID 0000.0001) // Tile <-> Tile communication statistics
(PID.TID 0000.0001) // ======================================================
(PID.TID 0000.0001) // o Tile number: 000001
(PID.TID 0000.0001) //         No. X exchanges =              0
(PID.TID 0000.0001) //            Max. X spins =              0
(PID.TID 0000.0001) //            Min. X spins =     1000000000
(PID.TID 0000.0001) //          Total. X spins =              0
(PID.TID 0000.0001) //            Avg. X spins =       0.00E+00
(PID.TID 0000.0001) //         No. Y exchanges =              0
(PID.TID 0000.0001) //            Max. Y spins =              0
(PID.TID 0000.0001) //            Min. Y spins =     1000000000
(PID.TID 0000.0001) //          Total. Y spins =              0
(PID.TID 0000.0001) //            Avg. Y spins =       0.00E+00
(PID.TID 0000.0001) // o Tile number: 000002
(PID.TID 0000.0001) //         No. X exchanges =              0
(PID.TID 0000.0001) //            Max. X spins =              0
(PID.TID 0000.0001) //            Min. X spins =     1000000000
(PID.TID 0000.0001) //          Total. X spins =              0
(PID.TID 0000.0001) //            Avg. X spins =       0.00E+00
(PID.TID 0000.0001) //         No. Y exchanges =              0
(PID.TID 0000.0001) //            Max. Y spins =              0
(PID.TID 0000.0001) //            Min. Y spins =     1000000000
(PID.TID 0000.0001) //          Total. Y spins =              0
(PID.TID 0000.0001) //            Avg. Y spins =       0.00E+00
(PID.TID 0000.0001) // o Tile number: 000003
(PID.TID 0000.0001) //         No. X exchanges =              0
(PID.TID 0000.0001) //            Max. X spins =              0
(PID.TID 0000.0001) //            Min. X spins =     1000000000
(PID.TID 0000.0001) //          Total. X spins =              0
(PID.TID 0000.0001) //            Avg. X spins =       0.00E+00
(PID.TID 0000.0001) //         No. Y exchanges =              0
(PID.TID 0000.0001) //            Max. Y spins =              0
(PID.TID 0000.0001) //            Min. Y spins =     1000000000
(PID.TID 0000.0001) //          Total. Y spins =              0
(PID.TID 0000.0001) //            Avg. Y spins =       0.00E+00
(PID.TID 0000.0001) // o Tile number: 000004
(PID.TID 0000.0001) //         No. X exchanges =              0
(PID.TID 0000.0001) //            Max. X spins =              0
(PID.TID 0000.0001) //            Min. X spins =     1000000000
(PID.TID 0000.0001) //          Total. X spins =              0
(PID.TID 0000.0001) //            Avg. X spins =       0.00E+00
(PID.TID 0000.0001) //         No. Y exchanges =              0
(PID.TID 0000.0001) //            Max. Y spins =              0
(PID.TID 0000.0001) //            Min. Y spins =     1000000000
(PID.TID 0000.0001) //          Total. Y spins =              0
(PID.TID 0000.0001) //            Avg. Y spins =       0.00E+00
(PID.TID 0000.0001) // o Thread number: 000001
(PID.TID 0000.0001) //            No. barriers =          11398
(PID.TID 0000.0001) //      Max. barrier spins =              1
(PID.TID 0000.0001) //      Min. barrier spins =              1
(PID.TID 0000.0001) //     Total barrier spins =          11398
(PID.TID 0000.0001) //      Avg. barrier spins =       1.00E+00
PROGRAM MAIN: Execution ended Normally
