(PID.TID 0000.0001) 
(PID.TID 0000.0001) // ======================================================
(PID.TID 0000.0001) //                      MITgcm UV
(PID.TID 0000.0001) //                      =========
(PID.TID 0000.0001) // ======================================================
(PID.TID 0000.0001) // execution environment starting up...
(PID.TID 0000.0001) 
(PID.TID 0000.0001) // MITgcmUV version:  checkpoint66k
(PID.TID 0000.0001) // Build user:        jmc
(PID.TID 0000.0001) // Build host:        baudelaire
(PID.TID 0000.0001) // Build date:        Fri Oct 13 14:32:29 EDT 2017
(PID.TID 0000.0001) 
(PID.TID 0000.0001) // =======================================================
(PID.TID 0000.0001) // Execution Environment parameter file "eedata"
(PID.TID 0000.0001) // =======================================================
(PID.TID 0000.0001) ># Example "eedata" file
(PID.TID 0000.0001) ># Lines beginning "#" are comments
(PID.TID 0000.0001) ># nTx - No. threads per process in X
(PID.TID 0000.0001) ># nTy - No. threads per process in Y
(PID.TID 0000.0001) > &EEPARMS
(PID.TID 0000.0001) > nTx=1,
(PID.TID 0000.0001) > nTy=1,
(PID.TID 0000.0001) > /
(PID.TID 0000.0001) ># Note: Some systems use & as the namelist terminator (as shown here).
(PID.TID 0000.0001) >#       Other systems use a / character.
(PID.TID 0000.0001) 
(PID.TID 0000.0001) // =======================================================
(PID.TID 0000.0001) // Computational Grid Specification ( see files "SIZE.h" )
(PID.TID 0000.0001) //                                  ( and "eedata"       )
(PID.TID 0000.0001) // =======================================================
(PID.TID 0000.0001)      nPx =    1 ; /* No. processes in X */
(PID.TID 0000.0001)      nPy =    1 ; /* No. processes in Y */
(PID.TID 0000.0001)      nSx =    2 ; /* No. tiles in X per process */
(PID.TID 0000.0001)      nSy =    4 ; /* No. tiles in Y per process */
(PID.TID 0000.0001)      sNx =   50 ; /* Tile size in X */
(PID.TID 0000.0001)      sNy =   25 ; /* Tile size in Y */
(PID.TID 0000.0001)      OLx =    3 ; /* Tile overlap distance in X */
(PID.TID 0000.0001)      OLy =    3 ; /* Tile overlap distance in Y */
(PID.TID 0000.0001)      nTx =    1 ; /* No. threads in X per process */
(PID.TID 0000.0001)      nTy =    1 ; /* No. threads in Y per process */
(PID.TID 0000.0001)       Nr =    1 ; /* No. levels in the vertical   */
(PID.TID 0000.0001)       Nx =  100 ; /* Total domain size in X ( = nPx*nSx*sNx ) */
(PID.TID 0000.0001)       Ny =  100 ; /* Total domain size in Y ( = nPy*nSy*sNy ) */
(PID.TID 0000.0001)   nTiles =    8 ; /* Total no. tiles per process ( = nSx*nSy ) */
(PID.TID 0000.0001)   nProcs =    1 ; /* Total no. processes ( = nPx*nPy ) */
(PID.TID 0000.0001) nThreads =    1 ; /* Total no. threads per process ( = nTx*nTy ) */
(PID.TID 0000.0001) usingMPI =    F ; /* Flag used to control whether MPI is in use */
(PID.TID 0000.0001)                   /*  note: To execute a program with MPI calls */
(PID.TID 0000.0001)                   /*  it must be launched appropriately e.g     */
(PID.TID 0000.0001)                   /*  "mpirun -np 64 ......"                    */
(PID.TID 0000.0001) useCoupler=    F ;/* Flag used to control communications with   */
(PID.TID 0000.0001)                   /*  other model components, through a coupler */
(PID.TID 0000.0001) debugMode =    F ; /* print debug msg. (sequence of S/R calls)  */
(PID.TID 0000.0001) printMapIncludesZeros=    F ; /* print zeros in Std.Output maps */
(PID.TID 0000.0001) maxLengthPrt1D=   65 /* maxLength of 1D array printed to StdOut */
(PID.TID 0000.0001) 
(PID.TID 0000.0001) // ======================================================
(PID.TID 0000.0001) // Mapping of tiles to threads
(PID.TID 0000.0001) // ======================================================
(PID.TID 0000.0001) // -o- Thread   1, tiles (   1:   2,   1:   4)
(PID.TID 0000.0001) 
(PID.TID 0000.0001) // ======================================================
(PID.TID 0000.0001) // Tile <-> Tile connectvity table
(PID.TID 0000.0001) // ======================================================
(PID.TID 0000.0001) // Tile number: 000001 (process no. = 000000)
(PID.TID 0000.0001) //        WEST: Tile = 000002, Process = 000000, Comm = put
(PID.TID 0000.0001) //                bi = 000002, bj = 000001
(PID.TID 0000.0001) //        EAST: Tile = 000002, Process = 000000, Comm = put
(PID.TID 0000.0001) //                bi = 000002, bj = 000001
(PID.TID 0000.0001) //       SOUTH: Tile = 000007, Process = 000000, Comm = put
(PID.TID 0000.0001) //                bi = 000001, bj = 000004
(PID.TID 0000.0001) //       NORTH: Tile = 000003, Process = 000000, Comm = put
(PID.TID 0000.0001) //                bi = 000001, bj = 000002
(PID.TID 0000.0001) // Tile number: 000002 (process no. = 000000)
(PID.TID 0000.0001) //        WEST: Tile = 000001, Process = 000000, Comm = put
(PID.TID 0000.0001) //                bi = 000001, bj = 000001
(PID.TID 0000.0001) //        EAST: Tile = 000001, Process = 000000, Comm = put
(PID.TID 0000.0001) //                bi = 000001, bj = 000001
(PID.TID 0000.0001) //       SOUTH: Tile = 000008, Process = 000000, Comm = put
(PID.TID 0000.0001) //                bi = 000002, bj = 000004
(PID.TID 0000.0001) //       NORTH: Tile = 000004, Process = 000000, Comm = put
(PID.TID 0000.0001) //                bi = 000002, bj = 000002
(PID.TID 0000.0001) // Tile number: 000003 (process no. = 000000)
(PID.TID 0000.0001) //        WEST: Tile = 000004, Process = 000000, Comm = put
(PID.TID 0000.0001) //                bi = 000002, bj = 000002
(PID.TID 0000.0001) //        EAST: Tile = 000004, Process = 000000, Comm = put
(PID.TID 0000.0001) //                bi = 000002, bj = 000002
(PID.TID 0000.0001) //       SOUTH: Tile = 000001, Process = 000000, Comm = put
(PID.TID 0000.0001) //                bi = 000001, bj = 000001
(PID.TID 0000.0001) //       NORTH: Tile = 000005, Process = 000000, Comm = put
(PID.TID 0000.0001) //                bi = 000001, bj = 000003
(PID.TID 0000.0001) // Tile number: 000004 (process no. = 000000)
(PID.TID 0000.0001) //        WEST: Tile = 000003, Process = 000000, Comm = put
(PID.TID 0000.0001) //                bi = 000001, bj = 000002
(PID.TID 0000.0001) //        EAST: Tile = 000003, Process = 000000, Comm = put
(PID.TID 0000.0001) //                bi = 000001, bj = 000002
(PID.TID 0000.0001) //       SOUTH: Tile = 000002, Process = 000000, Comm = put
(PID.TID 0000.0001) //                bi = 000002, bj = 000001
(PID.TID 0000.0001) //       NORTH: Tile = 000006, Process = 000000, Comm = put
(PID.TID 0000.0001) //                bi = 000002, bj = 000003
(PID.TID 0000.0001) // Tile number: 000005 (process no. = 000000)
(PID.TID 0000.0001) //        WEST: Tile = 000006, Process = 000000, Comm = put
(PID.TID 0000.0001) //                bi = 000002, bj = 000003
(PID.TID 0000.0001) //        EAST: Tile = 000006, Process = 000000, Comm = put
(PID.TID 0000.0001) //                bi = 000002, bj = 000003
(PID.TID 0000.0001) //       SOUTH: Tile = 000003, Process = 000000, Comm = put
(PID.TID 0000.0001) //                bi = 000001, bj = 000002
(PID.TID 0000.0001) //       NORTH: Tile = 000007, Process = 000000, Comm = put
(PID.TID 0000.0001) //                bi = 000001, bj = 000004
(PID.TID 0000.0001) // Tile number: 000006 (process no. = 000000)
(PID.TID 0000.0001) //        WEST: Tile = 000005, Process = 000000, Comm = put
(PID.TID 0000.0001) //                bi = 000001, bj = 000003
(PID.TID 0000.0001) //        EAST: Tile = 000005, Process = 000000, Comm = put
(PID.TID 0000.0001) //                bi = 000001, bj = 000003
(PID.TID 0000.0001) //       SOUTH: Tile = 000004, Process = 000000, Comm = put
(PID.TID 0000.0001) //                bi = 000002, bj = 000002
(PID.TID 0000.0001) //       NORTH: Tile = 000008, Process = 000000, Comm = put
(PID.TID 0000.0001) //                bi = 000002, bj = 000004
(PID.TID 0000.0001) // Tile number: 000007 (process no. = 000000)
(PID.TID 0000.0001) //        WEST: Tile = 000008, Process = 000000, Comm = put
(PID.TID 0000.0001) //                bi = 000002, bj = 000004
(PID.TID 0000.0001) //        EAST: Tile = 000008, Process = 000000, Comm = put
(PID.TID 0000.0001) //                bi = 000002, bj = 000004
(PID.TID 0000.0001) //       SOUTH: Tile = 000005, Process = 000000, Comm = put
(PID.TID 0000.0001) //                bi = 000001, bj = 000003
(PID.TID 0000.0001) //       NORTH: Tile = 000001, Process = 000000, Comm = put
(PID.TID 0000.0001) //                bi = 000001, bj = 000001
(PID.TID 0000.0001) // Tile number: 000008 (process no. = 000000)
(PID.TID 0000.0001) //        WEST: Tile = 000007, Process = 000000, Comm = put
(PID.TID 0000.0001) //                bi = 000001, bj = 000004
(PID.TID 0000.0001) //        EAST: Tile = 000007, Process = 000000, Comm = put
(PID.TID 0000.0001) //                bi = 000001, bj = 000004
(PID.TID 0000.0001) //       SOUTH: Tile = 000006, Process = 000000, Comm = put
(PID.TID 0000.0001) //                bi = 000002, bj = 000003
(PID.TID 0000.0001) //       NORTH: Tile = 000002, Process = 000000, Comm = put
(PID.TID 0000.0001) //                bi = 000002, bj = 000001
(PID.TID 0000.0001) 
(PID.TID 0000.0001)  INI_PARMS: opening model parameter file "data"
(PID.TID 0000.0001)  OPEN_COPY_DATA_FILE: opening file data
(PID.TID 0000.0001) // =======================================================
(PID.TID 0000.0001) // Parameter file "data"
(PID.TID 0000.0001) // =======================================================
(PID.TID 0000.0001) ># ====================
(PID.TID 0000.0001) ># | Model parameters |
(PID.TID 0000.0001) ># ====================
(PID.TID 0000.0001) >#
(PID.TID 0000.0001) ># Continuous equation parameters
(PID.TID 0000.0001) > &PARM01
(PID.TID 0000.0001) > tRef=20.,
(PID.TID 0000.0001) > sRef=35.,
(PID.TID 0000.0001) > viscAh=500.,
(PID.TID 0000.0001) > diffKhT=200.,
(PID.TID 0000.0001) > diffKhS=200.,
(PID.TID 0000.0001) > tempAdvScheme=33,
(PID.TID 0000.0001) > staggerTimeStep=.TRUE.,
(PID.TID 0000.0001) > eosType='LINEAR',
(PID.TID 0000.0001) > celsius2K=273.16,
(PID.TID 0000.0001) > readBinaryPrec=64,
(PID.TID 0000.0001) >#debugLevel=5,
(PID.TID 0000.0001) > /
(PID.TID 0000.0001) >
(PID.TID 0000.0001) ># Elliptic solver parameters
(PID.TID 0000.0001) > &PARM02
(PID.TID 0000.0001) > /
(PID.TID 0000.0001) >
(PID.TID 0000.0001) ># Time stepping parameters
(PID.TID 0000.0001) > &PARM03
(PID.TID 0000.0001) > nIter0  = 0,
(PID.TID 0000.0001) > deltaT  = 1200.,
(PID.TID 0000.0001) > endTime = 28800.,
(PID.TID 0000.0001) > dumpFreq= 14400.,
(PID.TID 0000.0001) > monitorFreq=3600.,
(PID.TID 0000.0001) > /
(PID.TID 0000.0001) >
(PID.TID 0000.0001) ># Grid parameters
(PID.TID 0000.0001) > &PARM04
(PID.TID 0000.0001) > usingSphericalPolarGrid=.TRUE.,
(PID.TID 0000.0001) > ygOrigin=30.,
(PID.TID 0000.0001) > dxSpacing=0.25,
(PID.TID 0000.0001) > dySpacing=0.25,
(PID.TID 0000.0001) > delR=1000.,
(PID.TID 0000.0001) > /
(PID.TID 0000.0001) >
(PID.TID 0000.0001) ># Input datasets
(PID.TID 0000.0001) > &PARM05
(PID.TID 0000.0001) > bathyFile='topog.box',
(PID.TID 0000.0001) > /
(PID.TID 0000.0001) 
(PID.TID 0000.0001)  INI_PARMS ; starts to read PARM01
(PID.TID 0000.0001)  INI_PARMS ; read PARM01 : OK
(PID.TID 0000.0001) S/R INI_PARMS: No request for barotropic solver
(PID.TID 0000.0001) S/R INI_PARMS: => Use implicitFreeSurface as default
(PID.TID 0000.0001)  INI_PARMS ; starts to read PARM02
(PID.TID 0000.0001)  INI_PARMS ; read PARM02 : OK
(PID.TID 0000.0001)  INI_PARMS ; starts to read PARM03
(PID.TID 0000.0001)  INI_PARMS ; read PARM03 : OK
(PID.TID 0000.0001)  INI_PARMS ; starts to read PARM04
(PID.TID 0000.0001)  INI_PARMS ; read PARM04 : OK
(PID.TID 0000.0001)  INI_PARMS ; starts to read PARM05
(PID.TID 0000.0001)  INI_PARMS ; read PARM05 : OK
(PID.TID 0000.0001)  INI_PARMS: finished reading file "data"
(PID.TID 0000.0001)  PACKAGES_BOOT: opening data.pkg
(PID.TID 0000.0001)  OPEN_COPY_DATA_FILE: opening file data.pkg
(PID.TID 0000.0001) // =======================================================
(PID.TID 0000.0001) // Parameter file "data.pkg"
(PID.TID 0000.0001) // =======================================================
(PID.TID 0000.0001) ># Packages
(PID.TID 0000.0001) > &PACKAGES
(PID.TID 0000.0001) >  useCheapAML=.TRUE.,
(PID.TID 0000.0001) >  useDiagnostics=.TRUE.,
(PID.TID 0000.0001) >  useMNC=.TRUE.,
(PID.TID 0000.0001) > /
(PID.TID 0000.0001) 
(PID.TID 0000.0001)  PACKAGES_BOOT: finished reading data.pkg
(PID.TID 0000.0001)  PACKAGES_BOOT: On/Off package Summary
 --------  pkgs with a standard "usePKG" On/Off switch in "data.pkg":  --------
 pkg/cheapaml             compiled   and   used ( useCheapAML              = T )
 pkg/diagnostics          compiled   and   used ( useDiagnostics           = T )
 pkg/mnc                  compiled   and   used ( useMNC                   = T )
 -------- pkgs without standard "usePKG" On/Off switch in "data.pkg":  --------
 pkg/generic_advdiff      compiled   and   used ( useGAD                   = T )
 pkg/mom_common           compiled   and   used ( momStepping              = T )
 pkg/mom_vecinv           compiled but not used ( +vectorInvariantMomentum = F )
 pkg/mom_fluxform         compiled   and   used ( & not vectorInvariantMom = T )
 pkg/monitor              compiled   and   used ( monitorFreq > 0.         = T )
 pkg/debug                compiled but not used ( debugMode                = F )
 pkg/rw                   compiled   and   used
 pkg/mdsio                compiled   and   used
(PID.TID 0000.0001)  PACKAGES_BOOT: End of package Summary
(PID.TID 0000.0001) 
(PID.TID 0000.0001)  MNC_READPARMS: opening file 'data.mnc'
(PID.TID 0000.0001)  OPEN_COPY_DATA_FILE: opening file data.mnc
(PID.TID 0000.0001) // =======================================================
(PID.TID 0000.0001) // Parameter file "data.mnc"
(PID.TID 0000.0001) // =======================================================
(PID.TID 0000.0001) ># Example "data.mnc" file
(PID.TID 0000.0001) ># Lines beginning "#" are comments
(PID.TID 0000.0001) > &MNC_01
(PID.TID 0000.0001) ># mnc_echo_gvtypes=.FALSE.,
(PID.TID 0000.0001) >  mnc_use_indir=.TRUE.,
(PID.TID 0000.0001) >  mnc_indir_str='start/',
(PID.TID 0000.0001) >  mnc_use_outdir=.TRUE.,
(PID.TID 0000.0001) >  mnc_outdir_str='mnc_test_',
(PID.TID 0000.0001) >  mnc_outdir_date=.FALSE.,
(PID.TID 0000.0001) >  monitor_mnc=.FALSE.,
(PID.TID 0000.0001) ># snapshot_mnc=.FALSE.,
(PID.TID 0000.0001) ># timeave_mnc=.FALSE.,
(PID.TID 0000.0001) >  pickup_write_mnc=.FALSE.,
(PID.TID 0000.0001) >  pickup_read_mnc=.FALSE.,
(PID.TID 0000.0001) > /
(PID.TID 0000.0001) 
(PID.TID 0000.0001)  MNC_READPARMS: finished reading data.mnc
(PID.TID 0000.0001)  BULKF_READPARMS: opening data.cheapaml
(PID.TID 0000.0001)  OPEN_COPY_DATA_FILE: opening file data.cheapaml
(PID.TID 0000.0001) // =======================================================
(PID.TID 0000.0001) // Parameter file "data.cheapaml"
(PID.TID 0000.0001) // =======================================================
(PID.TID 0000.0001) ># Package CheapAML parameters
(PID.TID 0000.0001) >#--------------------
(PID.TID 0000.0001) > &CHEAPAML_CONST
(PID.TID 0000.0001) >  cheapaml_ntim = 5,
(PID.TID 0000.0001) >  cheapaml_mask_width=4,
(PID.TID 0000.0001) >  cheapaml_h = 1000.,
(PID.TID 0000.0001) > /
(PID.TID 0000.0001) >
(PID.TID 0000.0001) > &CHEAPAML_PARM01
(PID.TID 0000.0001) > /
(PID.TID 0000.0001) >
(PID.TID 0000.0001) > &CHEAPAML_PARM02
(PID.TID 0000.0001) >  useFreshWaterFlux=.TRUE.,
(PID.TID 0000.0001) >  useFluxLimit=.TRUE.,
(PID.TID 0000.0001) >  FluxFormula='COARE3',
(PID.TID 0000.0001) >  useRelativeWind=.TRUE.,
(PID.TID 0000.0001) > /
(PID.TID 0000.0001) 
(PID.TID 0000.0001)  CHEAPAML_READPARMS: read CHEAPAML_CONST
(PID.TID 0000.0001)  CHEAPAML_READPARMS: read CHEAPAML_PARM01
(PID.TID 0000.0001)  CHEAPAML_READPARMS: read CHEAPAML_PARM02
 Caml: ntim     =           5
 Caml: mask_w   =           4
 Caml: h        =   1000.0000000000000     
 Caml: kdiff    =   10000.000000000000     
 Caml: tauRelax =   8640.0000000000000       (s)
 Caml: tRelaxOce=   0.0000000000000000       (s)
 Caml: rhoa     =   1.3000000000000000     
 Caml: cpair    =   1004.0000000000000     
 Caml: stefan   =  5.66999999999999982E-008
 Caml: cheapamlXperiodic  = F
 Caml: cheapamlYperiodic  = F
 Caml: useFreshWaterFlux  = T
 Caml: useFluxLimit       = T
 Caml: useStressOption    = F
 Caml: useCheapTracer     = F
 Caml: useTimeVarBLH      = F
 Caml: useClouds          = F
 Caml: useDlongwave       = F
 Caml: usePrecip          = F
(PID.TID 0000.0001)  DIAGNOSTICS_READPARMS: opening data.diagnostics
(PID.TID 0000.0001)  OPEN_COPY_DATA_FILE: opening file data.diagnostics
(PID.TID 0000.0001) // =======================================================
(PID.TID 0000.0001) // Parameter file "data.diagnostics"
(PID.TID 0000.0001) // =======================================================
(PID.TID 0000.0001) ># Diagnostic Package Choices
(PID.TID 0000.0001) >#--------------------
(PID.TID 0000.0001) >#  dumpAtLast (logical): always write output at the end of simulation (default=F)
(PID.TID 0000.0001) >#  diag_mnc   (logical): write to NetCDF files (default=useMNC)
(PID.TID 0000.0001) >#--for each output-stream:
(PID.TID 0000.0001) >#  fileName(n) : prefix of the output file name (max 80c long) for outp.stream n
(PID.TID 0000.0001) >#  frequency(n):< 0 : write snap-shot output every |frequency| seconds
(PID.TID 0000.0001) >#               > 0 : write time-average output every frequency seconds
(PID.TID 0000.0001) >#  timePhase(n)     : write at time = timePhase + multiple of |frequency|
(PID.TID 0000.0001) >#    averagingFreq  : frequency (in s) for periodic averaging interval
(PID.TID 0000.0001) >#    averagingPhase : phase     (in s) for periodic averaging interval
(PID.TID 0000.0001) >#    repeatCycle    : number of averaging intervals in 1 cycle
(PID.TID 0000.0001) >#  levels(:,n) : list of levels to write to file (Notes: declared as REAL)
(PID.TID 0000.0001) >#                when this entry is missing, select all common levels of this list
(PID.TID 0000.0001) >#  fields(:,n) : list of selected diagnostics fields (8.c) in outp.stream n
(PID.TID 0000.0001) >#                (see "available_diagnostics.log" file for the full list of diags)
(PID.TID 0000.0001) >#  missing_value(n) : missing value for real-type fields in output file "n"
(PID.TID 0000.0001) >#  fileFlags(n)     : specific code (8c string) for output file "n"
(PID.TID 0000.0001) >#--------------------
(PID.TID 0000.0001) > &DIAGNOSTICS_LIST
(PID.TID 0000.0001) ># diag_mnc     = .FALSE.,
(PID.TID 0000.0001) ># dumpAtLast   = .TRUE.,
(PID.TID 0000.0001) >#--
(PID.TID 0000.0001) >  fields(1:6,1)  = 'CH_TAIR ','CH_QAIR ','CH_QNET ','CH_EmP  ','CH_Uwind','CH_Vwind',
(PID.TID 0000.0001) >   fileName(1) = 'cheapAML',
(PID.TID 0000.0001) >  frequency(1) = 14400.,
(PID.TID 0000.0001) > /
(PID.TID 0000.0001) >
(PID.TID 0000.0001) >#--------------------
(PID.TID 0000.0001) ># Parameter for Diagnostics of per level statistics:
(PID.TID 0000.0001) >#--------------------
(PID.TID 0000.0001) >#  diagSt_mnc (logical): write stat-diags to NetCDF files (default=diag_mnc)
(PID.TID 0000.0001) >#  diagSt_regMaskFile : file containing the region-mask to read-in
(PID.TID 0000.0001) >#  nSetRegMskFile   : number of region-mask sets within the region-mask file
(PID.TID 0000.0001) >#  set_regMask(i)   : region-mask set-index that identifies the region "i"
(PID.TID 0000.0001) >#  val_regMask(i)   : region "i" identifier value in the region mask
(PID.TID 0000.0001) >#--for each output-stream:
(PID.TID 0000.0001) >#  stat_fName(n) : prefix of the output file name (max 80c long) for outp.stream n
(PID.TID 0000.0001) >#  stat_freq(n):< 0 : write snap-shot output every |stat_freq| seconds
(PID.TID 0000.0001) >#               > 0 : write time-average output every stat_freq seconds
(PID.TID 0000.0001) >#  stat_phase(n)    : write at time = stat_phase + multiple of |stat_freq|
(PID.TID 0000.0001) >#  stat_region(:,n) : list of "regions" (default: 1 region only=global)
(PID.TID 0000.0001) >#  stat_fields(:,n) : list of selected diagnostics fields (8.c) in outp.stream n
(PID.TID 0000.0001) >#                (see "available_diagnostics.log" file for the full list of diags)
(PID.TID 0000.0001) >#--------------------
(PID.TID 0000.0001) > &DIAG_STATIS_PARMS
(PID.TID 0000.0001) >#---
(PID.TID 0000.0001) >#stat_fields(1:5,1) = 'ETAN    ','UVEL    ','VVEL    ','WVEL    ',
(PID.TID 0000.0001) >#                     'THETA   ',
(PID.TID 0000.0001) ># stat_fName(1) = 'dynStDiag',
(PID.TID 0000.0001) >#  stat_freq(1) = 1800.,
(PID.TID 0000.0001) > /
(PID.TID 0000.0001) 
(PID.TID 0000.0001) S/R DIAGNOSTICS_READPARMS, read namelist "diagnostics_list": start
(PID.TID 0000.0001) S/R DIAGNOSTICS_READPARMS, read namelist "diagnostics_list": OK
(PID.TID 0000.0001) S/R DIAGNOSTICS_READPARMS, read namelist "DIAG_STATIS_PARMS": start
(PID.TID 0000.0001) S/R DIAGNOSTICS_READPARMS, read namelist "DIAG_STATIS_PARMS": OK
(PID.TID 0000.0001)  DIAGNOSTICS_READPARMS: global parameter summary:
(PID.TID 0000.0001)  dumpAtLast = /* always write time-ave diags at the end */
(PID.TID 0000.0001)                   F
(PID.TID 0000.0001)     ;
(PID.TID 0000.0001)  diag_mnc =   /* write NetCDF output files */
(PID.TID 0000.0001)                   T
(PID.TID 0000.0001)     ;
(PID.TID 0000.0001)  useMissingValue = /* put MissingValue where mask = 0 */
(PID.TID 0000.0001)                   F
(PID.TID 0000.0001)     ;
(PID.TID 0000.0001)  diagCG_maxIters = /* max number of iters in diag_cg2d */
(PID.TID 0000.0001)                     150
(PID.TID 0000.0001)     ;
(PID.TID 0000.0001)  diagCG_resTarget = /* residual target for diag_cg2d */
(PID.TID 0000.0001)                 1.000000000000000E-07
(PID.TID 0000.0001)     ;
(PID.TID 0000.0001)  diagCG_pcOffDFac = /* preconditioner off-diagonal factor */
(PID.TID 0000.0001)                 9.611687812379854E-01
(PID.TID 0000.0001)     ;
(PID.TID 0000.0001) -----------------------------------------------------
(PID.TID 0000.0001)  DIAGNOSTICS_READPARMS: active diagnostics summary:
(PID.TID 0000.0001) -----------------------------------------------------
(PID.TID 0000.0001) Creating Output Stream: cheapAML
(PID.TID 0000.0001) Output Frequency:      14400.000000 ; Phase:           0.000000
(PID.TID 0000.0001)  Averaging Freq.:      14400.000000 , Phase:           0.000000 , Cycle:   1
(PID.TID 0000.0001)  missing value: -9.990000000000E+02
(PID.TID 0000.0001)  Levels:    will be set later
(PID.TID 0000.0001)  Fields:    CH_TAIR  CH_QAIR  CH_QNET  CH_EmP   CH_Uwind CH_Vwind
(PID.TID 0000.0001) -----------------------------------------------------
(PID.TID 0000.0001)  DIAGNOSTICS_READPARMS: statistics diags. summary:
(PID.TID 0000.0001) -----------------------------------------------------
(PID.TID 0000.0001) 
(PID.TID 0000.0001) SET_PARMS: done
(PID.TID 0000.0001) Enter INI_VERTICAL_GRID: setInterFDr=    T ; setCenterDr=    F
(PID.TID 0000.0001) %MON XC_max                       =   2.4875000000000E+01
(PID.TID 0000.0001) %MON XC_min                       =   1.2500000000000E-01
(PID.TID 0000.0001) %MON XC_mean                      =   1.2500000000000E+01
(PID.TID 0000.0001) %MON XC_sd                        =   7.2165175119305E+00
(PID.TID 0000.0001) %MON XG_max                       =   2.4750000000000E+01
(PID.TID 0000.0001) %MON XG_min                       =   0.0000000000000E+00
(PID.TID 0000.0001) %MON XG_mean                      =   1.2375000000000E+01
(PID.TID 0000.0001) %MON XG_sd                        =   7.2165175119305E+00
(PID.TID 0000.0001) %MON DXC_max                      =   2.4040252850518E+04
(PID.TID 0000.0001) %MON DXC_min                      =   1.5991828426890E+04
(PID.TID 0000.0001) %MON DXC_mean                     =   2.0330001348477E+04
(PID.TID 0000.0001) %MON DXC_sd                       =   2.3583001248505E+03
(PID.TID 0000.0001) %MON DXF_max                      =   2.4040252850518E+04
(PID.TID 0000.0001) %MON DXF_min                      =   1.5991828426890E+04
(PID.TID 0000.0001) %MON DXF_mean                     =   2.0330001348477E+04
(PID.TID 0000.0001) %MON DXF_sd                       =   2.3583001248505E+03
(PID.TID 0000.0001) %MON DXG_max                      =   2.4070629062858E+04
(PID.TID 0000.0001) %MON DXG_min                      =   1.6041385996405E+04
(PID.TID 0000.0001) %MON DXG_mean                     =   2.0370595138284E+04
(PID.TID 0000.0001) %MON DXG_sd                       =   2.3527187837990E+03
(PID.TID 0000.0001) %MON DXV_max                      =   2.4070629062858E+04
(PID.TID 0000.0001) %MON DXV_min                      =   1.6041385996405E+04
(PID.TID 0000.0001) %MON DXV_mean                     =   2.0370595138284E+04
(PID.TID 0000.0001) %MON DXV_sd                       =   2.3527187837990E+03
(PID.TID 0000.0001) %MON YC_max                       =   5.4875000000000E+01
(PID.TID 0000.0001) %MON YC_min                       =   3.0125000000000E+01
(PID.TID 0000.0001) %MON YC_mean                      =   4.2500000000000E+01
(PID.TID 0000.0001) %MON YC_sd                        =   7.2165175119305E+00
(PID.TID 0000.0001) %MON YG_max                       =   5.4750000000000E+01
(PID.TID 0000.0001) %MON YG_min                       =   3.0000000000000E+01
(PID.TID 0000.0001) %MON YG_mean                      =   4.2375000000000E+01
(PID.TID 0000.0001) %MON YG_sd                        =   7.2165175119305E+00
(PID.TID 0000.0001) %MON DYC_max                      =   2.7794368338010E+04
(PID.TID 0000.0001) %MON DYC_min                      =   2.7794368338010E+04
(PID.TID 0000.0001) %MON DYC_mean                     =   2.7794368338010E+04
(PID.TID 0000.0001) %MON DYC_sd                       =   6.6211214289069E-10
(PID.TID 0000.0001) %MON DYF_max                      =   2.7794368338010E+04
(PID.TID 0000.0001) %MON DYF_min                      =   2.7794368338010E+04
(PID.TID 0000.0001) %MON DYF_mean                     =   2.7794368338010E+04
(PID.TID 0000.0001) %MON DYF_sd                       =   6.6211214289069E-10
(PID.TID 0000.0001) %MON DYG_max                      =   2.7794368338010E+04
(PID.TID 0000.0001) %MON DYG_min                      =   2.7794368338010E+04
(PID.TID 0000.0001) %MON DYG_mean                     =   2.7794368338010E+04
(PID.TID 0000.0001) %MON DYG_sd                       =   6.6211214289069E-10
(PID.TID 0000.0001) %MON DYU_max                      =   2.7794368338010E+04
(PID.TID 0000.0001) %MON DYU_min                      =   2.7794368338010E+04
(PID.TID 0000.0001) %MON DYU_mean                     =   2.7794368338010E+04
(PID.TID 0000.0001) %MON DYU_sd                       =   6.6211214289069E-10
(PID.TID 0000.0001) %MON RA_max                       =   6.6818311261326E+08
(PID.TID 0000.0001) %MON RA_min                       =   4.4448241709847E+08
(PID.TID 0000.0001) %MON RA_mean                      =   5.6505909754457E+08
(PID.TID 0000.0001) %MON RA_sd                        =   6.5547410324550E+07
(PID.TID 0000.0001) %MON RAW_max                      =   6.6818311261326E+08
(PID.TID 0000.0001) %MON RAW_min                      =   4.4448241709847E+08
(PID.TID 0000.0001) %MON RAW_mean                     =   5.6505909754457E+08
(PID.TID 0000.0001) %MON RAW_sd                       =   6.5547410324550E+07
(PID.TID 0000.0001) %MON RAS_max                      =   6.6902739957799E+08
(PID.TID 0000.0001) %MON RAS_min                      =   4.4585983734684E+08
(PID.TID 0000.0001) %MON RAS_mean                     =   5.6618737539566E+08
(PID.TID 0000.0001) %MON RAS_sd                       =   6.5392280598603E+07
(PID.TID 0000.0001) %MON RAZ_max                      =   6.6902739957799E+08
(PID.TID 0000.0001) %MON RAZ_min                      =   4.4585983734684E+08
(PID.TID 0000.0001) %MON RAZ_mean                     =   5.6618737539566E+08
(PID.TID 0000.0001) %MON RAZ_sd                       =   6.5392280598603E+07
(PID.TID 0000.0001) %MON AngleCS_max                  =   1.0000000000000E+00
(PID.TID 0000.0001) %MON AngleCS_min                  =   1.0000000000000E+00
(PID.TID 0000.0001) %MON AngleCS_mean                 =   1.0000000000000E+00
(PID.TID 0000.0001) %MON AngleCS_sd                   =   0.0000000000000E+00
(PID.TID 0000.0001) %MON AngleSN_max                  =   0.0000000000000E+00
(PID.TID 0000.0001) %MON AngleSN_min                  =   0.0000000000000E+00
(PID.TID 0000.0001) %MON AngleSN_mean                 =   0.0000000000000E+00
(PID.TID 0000.0001) %MON AngleSN_sd                   =   0.0000000000000E+00
(PID.TID 0000.0001)  MDS_READ_FIELD: opening global file: topog.box
(PID.TID 0000.0001) // =======================================================
(PID.TID 0000.0001) // Field Model R_low (ini_masks_etc)
(PID.TID 0000.0001) // CMIN =         -1.000000000000000E+03
(PID.TID 0000.0001) // CMAX =         -1.000000000000000E+03
(PID.TID 0000.0001) // CINT =          0.000000000000000E+00
(PID.TID 0000.0001) // SYMBOLS (CMIN->CMAX): -abcdefghijklmnopqrstuvwxyz+
(PID.TID 0000.0001) //                  0.0: .
(PID.TID 0000.0001) // RANGE I (Lo:Hi:Step):(    -2:   103:     1)
(PID.TID 0000.0001) // RANGE J (Lo:Hi:Step):(   103:    -2:    -1)
(PID.TID 0000.0001) // RANGE K (Lo:Hi:Step):(   1:   1:   1)
(PID.TID 0000.0001) // =======================================================
(PID.TID 0000.0001) // =======================================================
(PID.TID 0000.0001) // END OF FIELD                                          =
(PID.TID 0000.0001) // =======================================================
(PID.TID 0000.0001) 
(PID.TID 0000.0001) // =======================================================
(PID.TID 0000.0001) // Field Model Ro_surf (ini_masks_etc)
(PID.TID 0000.0001) // CMIN =          1.000000000000000E+32
(PID.TID 0000.0001) // CMAX =         -1.000000000000000E+32
(PID.TID 0000.0001) // CINT =          0.000000000000000E+00
(PID.TID 0000.0001) // SYMBOLS (CMIN->CMAX): -abcdefghijklmnopqrstuvwxyz+
(PID.TID 0000.0001) //                  0.0: .
(PID.TID 0000.0001) // RANGE I (Lo:Hi:Step):(    -2:   103:     1)
(PID.TID 0000.0001) // RANGE J (Lo:Hi:Step):(   103:    -2:    -1)
(PID.TID 0000.0001) // RANGE K (Lo:Hi:Step):(   1:   1:   1)
(PID.TID 0000.0001) // =======================================================
(PID.TID 0000.0001) // =======================================================
(PID.TID 0000.0001) // END OF FIELD                                          =
(PID.TID 0000.0001) // =======================================================
(PID.TID 0000.0001) 
(PID.TID 0000.0001) // =======================================================
(PID.TID 0000.0001) // Field hFacC at iteration          0
(PID.TID 0000.0001) // CMIN =          1.000000000000000E+00
(PID.TID 0000.0001) // CMAX =          1.000000000000000E+00
(PID.TID 0000.0001) // CINT =          0.000000000000000E+00
(PID.TID 0000.0001) // SYMBOLS (CMIN->CMAX): -abcdefghijklmnopqrstuvwxyz+
(PID.TID 0000.0001) //                  0.0: .
(PID.TID 0000.0001) // RANGE I (Lo:Hi:Step):(    -2:   103:     1)
(PID.TID 0000.0001) // RANGE J (Lo:Hi:Step):(   103:    -2:    -1)
(PID.TID 0000.0001) // RANGE K (Lo:Hi:Step):(   1:   1:   1)
(PID.TID 0000.0001) // =======================================================
(PID.TID 0000.0001) // =======================================================
(PID.TID 0000.0001) // END OF FIELD                                          =
(PID.TID 0000.0001) // =======================================================
(PID.TID 0000.0001) 
(PID.TID 0000.0001) // =======================================================
(PID.TID 0000.0001) // Field hFacW at iteration          0
(PID.TID 0000.0001) // CMIN =          1.000000000000000E+00
(PID.TID 0000.0001) // CMAX =          1.000000000000000E+00
(PID.TID 0000.0001) // CINT =          0.000000000000000E+00
(PID.TID 0000.0001) // SYMBOLS (CMIN->CMAX): -abcdefghijklmnopqrstuvwxyz+
(PID.TID 0000.0001) //                  0.0: .
(PID.TID 0000.0001) // RANGE I (Lo:Hi:Step):(    -2:   103:     1)
(PID.TID 0000.0001) // RANGE J (Lo:Hi:Step):(   103:    -2:    -1)
(PID.TID 0000.0001) // RANGE K (Lo:Hi:Step):(   1:   1:   1)
(PID.TID 0000.0001) // =======================================================
(PID.TID 0000.0001) // =======================================================
(PID.TID 0000.0001) // END OF FIELD                                          =
(PID.TID 0000.0001) // =======================================================
(PID.TID 0000.0001) 
(PID.TID 0000.0001) // =======================================================
(PID.TID 0000.0001) // Field hFacS at iteration          0
(PID.TID 0000.0001) // CMIN =          1.000000000000000E+00
(PID.TID 0000.0001) // CMAX =          1.000000000000000E+00
(PID.TID 0000.0001) // CINT =          0.000000000000000E+00
(PID.TID 0000.0001) // SYMBOLS (CMIN->CMAX): -abcdefghijklmnopqrstuvwxyz+
(PID.TID 0000.0001) //                  0.0: .
(PID.TID 0000.0001) // RANGE I (Lo:Hi:Step):(    -2:   103:     1)
(PID.TID 0000.0001) // RANGE J (Lo:Hi:Step):(   103:    -2:    -1)
(PID.TID 0000.0001) // RANGE K (Lo:Hi:Step):(   1:   1:   1)
(PID.TID 0000.0001) // =======================================================
(PID.TID 0000.0001) // =======================================================
(PID.TID 0000.0001) // END OF FIELD                                          =
(PID.TID 0000.0001) // =======================================================
(PID.TID 0000.0001) 
(PID.TID 0000.0001) GAD_INIT_FIXED: GAD_OlMinSize=  2  0  1
(PID.TID 0000.0001) 
(PID.TID 0000.0001) // ===================================
(PID.TID 0000.0001) // GAD parameters :
(PID.TID 0000.0001) // ===================================
(PID.TID 0000.0001) tempAdvScheme =   /* Temp. Horiz.Advection scheme selector */
(PID.TID 0000.0001)                      33
(PID.TID 0000.0001)     ;
(PID.TID 0000.0001) tempVertAdvScheme =   /* Temp. Vert. Advection scheme selector */
(PID.TID 0000.0001)                      33
(PID.TID 0000.0001)     ;
(PID.TID 0000.0001) tempMultiDimAdvec =   /* use Muti-Dim Advec method for Temp */
(PID.TID 0000.0001)                   T
(PID.TID 0000.0001)     ;
(PID.TID 0000.0001) tempSOM_Advection = /* use 2nd Order Moment Advection for Temp */
(PID.TID 0000.0001)                   F
(PID.TID 0000.0001)     ;
(PID.TID 0000.0001) AdamsBashforthGt = /* apply Adams-Bashforth extrapolation on Gt */
(PID.TID 0000.0001)                   F
(PID.TID 0000.0001)     ;
(PID.TID 0000.0001) AdamsBashforth_T = /* apply Adams-Bashforth extrapolation on Temp */
(PID.TID 0000.0001)                   F
(PID.TID 0000.0001)     ;
(PID.TID 0000.0001) saltAdvScheme =   /* Salt. Horiz.advection scheme selector */
(PID.TID 0000.0001)                       2
(PID.TID 0000.0001)     ;
(PID.TID 0000.0001) saltVertAdvScheme =   /* Salt. Vert. Advection scheme selector */
(PID.TID 0000.0001)                       2
(PID.TID 0000.0001)     ;
(PID.TID 0000.0001) saltMultiDimAdvec =   /* use Muti-Dim Advec method for Salt */
(PID.TID 0000.0001)                   F
(PID.TID 0000.0001)     ;
(PID.TID 0000.0001) saltSOM_Advection = /* use 2nd Order Moment Advection for Salt */
(PID.TID 0000.0001)                   F
(PID.TID 0000.0001)     ;
(PID.TID 0000.0001) AdamsBashforthGs = /* apply Adams-Bashforth extrapolation on Gs */
(PID.TID 0000.0001)                   T
(PID.TID 0000.0001)     ;
(PID.TID 0000.0001) AdamsBashforth_S = /* apply Adams-Bashforth extrapolation on Salt */
(PID.TID 0000.0001)                   F
(PID.TID 0000.0001)     ;
(PID.TID 0000.0001) // ===================================
(PID.TID 0000.0001) CHEAPAML_INIT_VARIA: Generate Cheapaml mask
(PID.TID 0000.0001) ------------------------------------------------------------
(PID.TID 0000.0001) DIAGNOSTICS_SET_LEVELS: done
(PID.TID 0000.0001)  Total Nb of available Diagnostics: ndiagt=   198
(PID.TID 0000.0001)  write list of available Diagnostics to file: available_diagnostics.log
(PID.TID 0000.0001) SETDIAG: Allocate  1 x  1 Levels for Diagnostic #   187 CH_TAIR
(PID.TID 0000.0001) SETDIAG: Allocate  1 x  1 Levels for Diagnostic #   189 CH_QAIR
(PID.TID 0000.0001) SETDIAG: Allocate  1 x  1 Levels for Diagnostic #   188 CH_QNET
(PID.TID 0000.0001) SETDIAG: Allocate  1 x  1 Levels for Diagnostic #   190 CH_EmP
(PID.TID 0000.0001) SETDIAG: Allocate  1 x  1 Levels for Diagnostic #   192 CH_Uwind
(PID.TID 0000.0001) SETDIAG: Allocate  1 x  1 Levels for Diagnostic #   193 CH_Vwind
(PID.TID 0000.0001)   space allocated for all diagnostics:       6 levels
(PID.TID 0000.0001)   set mate pointer for diag #   192  CH_Uwind , Parms: UU      L1 , mate:   193
(PID.TID 0000.0001)   set mate pointer for diag #   193  CH_Vwind , Parms: VV      L1 , mate:   192
(PID.TID 0000.0001) DIAGNOSTICS_SET_POINTERS: Set levels for Outp.Stream: cheapAML
(PID.TID 0000.0001)  Levels:       1.
(PID.TID 0000.0001) DIAGNOSTICS_SET_POINTERS: done
(PID.TID 0000.0001) ------------------------------------------------------------
(PID.TID 0000.0001) DIAGSTATS_SET_REGIONS: define no region
(PID.TID 0000.0001) ------------------------------------------------------------
(PID.TID 0000.0001)   space allocated for all stats-diags:       0 levels
(PID.TID 0000.0001) DIAGSTATS_SET_POINTERS: done
(PID.TID 0000.0001) ------------------------------------------------------------
(PID.TID 0000.0001) Empty tile bi,bj=     1     4
(PID.TID 0000.0001) 
(PID.TID 0000.0001) %MON fCori_max                    =   1.1928437363062E-04
(PID.TID 0000.0001) %MON fCori_min                    =   7.3196612432522E-05
(PID.TID 0000.0001) %MON fCori_mean                   =   9.7750068978508E-05
(PID.TID 0000.0001) %MON fCori_sd                     =   1.3496836407130E-05
(PID.TID 0000.0001) %MON fCoriG_max                   =   1.1910102178692E-04
(PID.TID 0000.0001) %MON fCoriG_min                   =   7.2921235169904E-05
(PID.TID 0000.0001) %MON fCoriG_mean                  =   9.7517106737915E-05
(PID.TID 0000.0001) %MON fCoriG_sd                    =   1.3523629015123E-05
(PID.TID 0000.0001) %MON fCoriCos_max                 =   1.2614389435569E-04
(PID.TID 0000.0001) %MON fCoriCos_min                 =   8.3912242029208E-05
(PID.TID 0000.0001) %MON fCoriCos_mean                =   1.0667548125635E-04
(PID.TID 0000.0001) %MON fCoriCos_sd                  =   1.2374460603968E-05
(PID.TID 0000.0001) INI_CG2D: CG2D normalisation factor =  5.8247769686780204E-04
(PID.TID 0000.0001) 
(PID.TID 0000.0001) // =======================================================
(PID.TID 0000.0001) // Model configuration
(PID.TID 0000.0001) // =======================================================
(PID.TID 0000.0001) //
(PID.TID 0000.0001) // "Physical" paramters ( PARM01 in namelist )
(PID.TID 0000.0001) //
(PID.TID 0000.0001) buoyancyRelation = /* Type of relation to get Buoyancy */
(PID.TID 0000.0001)               'OCEANIC'
(PID.TID 0000.0001)     ;
(PID.TID 0000.0001) fluidIsAir   =  /* fluid major constituent is Air */
(PID.TID 0000.0001)                   F
(PID.TID 0000.0001)     ;
(PID.TID 0000.0001) fluidIsWater =  /* fluid major constituent is Water */
(PID.TID 0000.0001)                   T
(PID.TID 0000.0001)     ;
(PID.TID 0000.0001) usingPCoords =  /* use p (or p*) vertical coordinate */
(PID.TID 0000.0001)                   F
(PID.TID 0000.0001)     ;
(PID.TID 0000.0001) usingZCoords =  /* use z (or z*) vertical coordinate */
(PID.TID 0000.0001)                   T
(PID.TID 0000.0001)     ;
(PID.TID 0000.0001) tRef =   /* Reference temperature profile ( oC or K ) */
(PID.TID 0000.0001)                 2.000000000000000E+01       /* K =  1 */
(PID.TID 0000.0001)     ;
(PID.TID 0000.0001) sRef =   /* Reference salinity profile ( psu ) */
(PID.TID 0000.0001)                 3.500000000000000E+01       /* K =  1 */
(PID.TID 0000.0001)     ;
(PID.TID 0000.0001) useStrainTensionVisc= /* Use StrainTension Form of Viscous Operator */
(PID.TID 0000.0001)                   F
(PID.TID 0000.0001)     ;
(PID.TID 0000.0001) useVariableVisc = /* Use variable horizontal viscosity */
(PID.TID 0000.0001)                   F
(PID.TID 0000.0001)     ;
(PID.TID 0000.0001) useHarmonicVisc = /* Use harmonic horizontal viscosity */
(PID.TID 0000.0001)                   T
(PID.TID 0000.0001)     ;
(PID.TID 0000.0001) useBiharmonicVisc= /* Use biharmonic horiz.  viscosity */
(PID.TID 0000.0001)                   F
(PID.TID 0000.0001)     ;
(PID.TID 0000.0001) useSmag3D = /* Use isotropic 3-D Smagorinsky viscosity */
(PID.TID 0000.0001)                   F
(PID.TID 0000.0001)     ;
(PID.TID 0000.0001) viscAh  =   /* Lateral harmonic viscosity ( m^2/s ) */
(PID.TID 0000.0001)                 5.000000000000000E+02
(PID.TID 0000.0001)     ;
(PID.TID 0000.0001) viscA4  =   /* Lateral biharmonic viscosity ( m^4/s ) */
(PID.TID 0000.0001)                 0.000000000000000E+00
(PID.TID 0000.0001)     ;
(PID.TID 0000.0001) no_slip_sides =  /* Viscous BCs: No-slip sides */
(PID.TID 0000.0001)                   T
(PID.TID 0000.0001)     ;
(PID.TID 0000.0001) sideDragFactor = /* side-drag scaling factor (non-dim) */
(PID.TID 0000.0001)                 2.000000000000000E+00
(PID.TID 0000.0001)     ;
(PID.TID 0000.0001) viscArNr = /* vertical profile of vertical viscosity ( m^2/s )*/
(PID.TID 0000.0001)                 0.000000000000000E+00       /* K =  1 */
(PID.TID 0000.0001)     ;
(PID.TID 0000.0001) no_slip_bottom =  /* Viscous BCs: No-slip bottom */
(PID.TID 0000.0001)                   T
(PID.TID 0000.0001)     ;
(PID.TID 0000.0001) bottomVisc_pCell = /* Partial-cell in bottom Visc. BC */
(PID.TID 0000.0001)                   F
(PID.TID 0000.0001)     ;
(PID.TID 0000.0001) bottomDragLinear = /* linear bottom-drag coefficient ( m/s ) */
(PID.TID 0000.0001)                 0.000000000000000E+00
(PID.TID 0000.0001)     ;
(PID.TID 0000.0001) bottomDragQuadratic = /* quadratic bottom-drag coefficient (-) */
(PID.TID 0000.0001)                 0.000000000000000E+00
(PID.TID 0000.0001)     ;
(PID.TID 0000.0001) selectBotDragQuadr = /* select quadratic bottom drag options */
(PID.TID 0000.0001)                      -1
(PID.TID 0000.0001)     ;
(PID.TID 0000.0001) diffKhT =   /* Laplacian diffusion of heat laterally ( m^2/s ) */
(PID.TID 0000.0001)                 2.000000000000000E+02
(PID.TID 0000.0001)     ;
(PID.TID 0000.0001) diffK4T =   /* Biharmonic diffusion of heat laterally ( m^4/s ) */
(PID.TID 0000.0001)                 0.000000000000000E+00
(PID.TID 0000.0001)     ;
(PID.TID 0000.0001) diffKhS =   /* Laplacian diffusion of salt laterally ( m^2/s ) */
(PID.TID 0000.0001)                 2.000000000000000E+02
(PID.TID 0000.0001)     ;
(PID.TID 0000.0001) diffK4S =   /* Biharmonic diffusion of salt laterally ( m^4/s ) */
(PID.TID 0000.0001)                 0.000000000000000E+00
(PID.TID 0000.0001)     ;
(PID.TID 0000.0001) diffKrNrT = /* vertical profile of vertical diffusion of Temp ( m^2/s )*/
(PID.TID 0000.0001)                 0.000000000000000E+00       /* K =  1 */
(PID.TID 0000.0001)     ;
(PID.TID 0000.0001) diffKrNrS = /* vertical profile of vertical diffusion of Salt ( m^2/s )*/
(PID.TID 0000.0001)                 0.000000000000000E+00       /* K =  1 */
(PID.TID 0000.0001)     ;
(PID.TID 0000.0001) diffKrBL79surf = /* Surface diffusion for Bryan and Lewis 79 ( m^2/s ) */
(PID.TID 0000.0001)                 0.000000000000000E+00
(PID.TID 0000.0001)     ;
(PID.TID 0000.0001) diffKrBL79deep = /* Deep diffusion for Bryan and Lewis 1979 ( m^2/s ) */
(PID.TID 0000.0001)                 0.000000000000000E+00
(PID.TID 0000.0001)     ;
(PID.TID 0000.0001) diffKrBL79scl = /* Depth scale for Bryan and Lewis 1979 ( m ) */
(PID.TID 0000.0001)                 2.000000000000000E+02
(PID.TID 0000.0001)     ;
(PID.TID 0000.0001) diffKrBL79Ho = /* Turning depth for Bryan and Lewis 1979 ( m ) */
(PID.TID 0000.0001)                -2.000000000000000E+03
(PID.TID 0000.0001)     ;
(PID.TID 0000.0001) ivdc_kappa = /* Implicit Vertical Diffusivity for Convection ( m^2/s) */
(PID.TID 0000.0001)                 0.000000000000000E+00
(PID.TID 0000.0001)     ;
(PID.TID 0000.0001) hMixCriteria=  /* Criteria for mixed-layer diagnostic */
(PID.TID 0000.0001)                -8.000000000000000E-01
(PID.TID 0000.0001)     ;
(PID.TID 0000.0001) dRhoSmall =  /* Parameter for mixed-layer diagnostic */
(PID.TID 0000.0001)                 1.000000000000000E-06
(PID.TID 0000.0001)     ;
(PID.TID 0000.0001) hMixSmooth=  /* Smoothing parameter for mixed-layer diagnostic */
(PID.TID 0000.0001)                 0.000000000000000E+00
(PID.TID 0000.0001)     ;
(PID.TID 0000.0001) eosType =  /* Type of Equation of State */
(PID.TID 0000.0001)               'LINEAR'
(PID.TID 0000.0001)     ;
(PID.TID 0000.0001) tAlpha = /* Linear EOS thermal expansion coefficient ( 1/oC ) */
(PID.TID 0000.0001)                 2.000000000000000E-04
(PID.TID 0000.0001)     ;
(PID.TID 0000.0001) sBeta  = /* Linear EOS haline contraction coefficient ( 1/psu ) */
(PID.TID 0000.0001)                 7.400000000000000E-04
(PID.TID 0000.0001)     ;
(PID.TID 0000.0001) rhoNil    = /* Reference density for Linear EOS ( kg/m^3 ) */
(PID.TID 0000.0001)                 9.998000000000000E+02
(PID.TID 0000.0001)     ;
(PID.TID 0000.0001) selectP_inEOS_Zc = /* select pressure to use in EOS (0,1,2,3) */
(PID.TID 0000.0001)                       0
(PID.TID 0000.0001)     0= -g*rhoConst*z ; 1= pRef (from tRef,sRef); 2= Hyd P ; 3= Hyd+NH P
(PID.TID 0000.0001)     ;
(PID.TID 0000.0001) HeatCapacity_Cp =  /* Specific heat capacity ( J/kg/K ) */
(PID.TID 0000.0001)                 3.994000000000000E+03
(PID.TID 0000.0001)     ;
(PID.TID 0000.0001) celsius2K = /* 0 degree Celsius converted to Kelvin ( K ) */
(PID.TID 0000.0001)                 2.731600000000000E+02
(PID.TID 0000.0001)     ;
(PID.TID 0000.0001) rhoConst  = /* Reference density (Boussinesq)  ( kg/m^3 ) */
(PID.TID 0000.0001)                 9.998000000000000E+02
(PID.TID 0000.0001)     ;
(PID.TID 0000.0001) rhoFacC = /* normalized Reference density @ cell-Center (-) */
(PID.TID 0000.0001)                 1.000000000000000E+00       /* K =  1 */
(PID.TID 0000.0001)     ;
(PID.TID 0000.0001) rhoFacF = /* normalized Reference density @ W-Interface (-) */
(PID.TID 0000.0001)     2 @  1.000000000000000E+00              /* K =  1:  2 */
(PID.TID 0000.0001)     ;
(PID.TID 0000.0001) rhoConstFresh = /* Fresh-water reference density ( kg/m^3 ) */
(PID.TID 0000.0001)                 9.998000000000000E+02
(PID.TID 0000.0001)     ;
(PID.TID 0000.0001) gravity =   /* Gravitational acceleration ( m/s^2 ) */
(PID.TID 0000.0001)                 9.810000000000000E+00
(PID.TID 0000.0001)     ;
(PID.TID 0000.0001) gBaro =   /* Barotropic gravity ( m/s^2 ) */
(PID.TID 0000.0001)                 9.810000000000000E+00
(PID.TID 0000.0001)     ;
(PID.TID 0000.0001) gravFacC = /* gravity factor (vs surf.) @ cell-Center (-) */
(PID.TID 0000.0001)                 1.000000000000000E+00       /* K =  1 */
(PID.TID 0000.0001)     ;
(PID.TID 0000.0001) gravFacF = /* gravity factor (vs surf.) @ W-Interface (-) */
(PID.TID 0000.0001)     2 @  1.000000000000000E+00              /* K =  1:  2 */
(PID.TID 0000.0001)     ;
(PID.TID 0000.0001) rotationPeriod =   /* Rotation Period ( s ) */
(PID.TID 0000.0001)                 8.616400000000000E+04
(PID.TID 0000.0001)     ;
(PID.TID 0000.0001) omega =   /* Angular velocity ( rad/s ) */
(PID.TID 0000.0001)                 7.292123516990375E-05
(PID.TID 0000.0001)     ;
(PID.TID 0000.0001) f0 =   /* Reference coriolis parameter ( 1/s ) */
(PID.TID 0000.0001)                 1.000000000000000E-04
(PID.TID 0000.0001)     ;
(PID.TID 0000.0001) beta =   /* Beta ( 1/(m.s) ) */
(PID.TID 0000.0001)                 9.999999999999999E-12
(PID.TID 0000.0001)     ;
(PID.TID 0000.0001) fPrime =   /* Second coriolis parameter ( 1/s ) */
(PID.TID 0000.0001)                 0.000000000000000E+00
(PID.TID 0000.0001)     ;
(PID.TID 0000.0001) rigidLid =   /* Rigid lid on/off flag */
(PID.TID 0000.0001)                   F
(PID.TID 0000.0001)     ;
(PID.TID 0000.0001) implicitFreeSurface =   /* Implicit free surface on/off flag */
(PID.TID 0000.0001)                   T
(PID.TID 0000.0001)     ;
(PID.TID 0000.0001) freeSurfFac =   /* Implicit free surface factor */
(PID.TID 0000.0001)                 1.000000000000000E+00
(PID.TID 0000.0001)     ;
(PID.TID 0000.0001) implicSurfPress =  /* Surface Pressure implicit factor (0-1)*/
(PID.TID 0000.0001)                 1.000000000000000E+00
(PID.TID 0000.0001)     ;
(PID.TID 0000.0001) implicDiv2DFlow =  /* Barot. Flow Div. implicit factor (0-1)*/
(PID.TID 0000.0001)                 1.000000000000000E+00
(PID.TID 0000.0001)     ;
(PID.TID 0000.0001) uniformLin_PhiSurf = /* use uniform Bo_surf on/off flag*/
(PID.TID 0000.0001)                   T
(PID.TID 0000.0001)     ;
(PID.TID 0000.0001) uniformFreeSurfLev = /* free-surface level-index is uniform */
(PID.TID 0000.0001)                   T
(PID.TID 0000.0001)     ;
(PID.TID 0000.0001) hFacMin =   /* minimum partial cell factor (hFac) */
(PID.TID 0000.0001)                 1.000000000000000E+00
(PID.TID 0000.0001)     ;
(PID.TID 0000.0001) hFacMinDr = /* minimum partial cell thickness ( m) */
(PID.TID 0000.0001)                 0.000000000000000E+00
(PID.TID 0000.0001)     ;
(PID.TID 0000.0001) exactConserv =  /* Exact Volume Conservation on/off flag*/
(PID.TID 0000.0001)                   F
(PID.TID 0000.0001)     ;
(PID.TID 0000.0001) linFSConserveTr = /* Tracer correction for Lin Free Surface on/off flag*/
(PID.TID 0000.0001)                   F
(PID.TID 0000.0001)     ;
(PID.TID 0000.0001) nonlinFreeSurf = /* Non-linear Free Surf. options (-1,0,1,2,3)*/
(PID.TID 0000.0001)                       0
(PID.TID 0000.0001)      -1,0= Off ; 1,2,3= On, 2=+rescale gU,gV, 3=+update cg2d solv.
(PID.TID 0000.0001)     ;
(PID.TID 0000.0001) hFacInf =   /* lower threshold for hFac (nonlinFreeSurf only)*/
(PID.TID 0000.0001)                 2.000000000000000E-01
(PID.TID 0000.0001)     ;
(PID.TID 0000.0001) hFacSup =   /* upper threshold for hFac (nonlinFreeSurf only)*/
(PID.TID 0000.0001)                 2.000000000000000E+00
(PID.TID 0000.0001)     ;
(PID.TID 0000.0001) select_rStar = /* r* Vertical coord. options (=0 r coord.; >0 uses r*)*/
(PID.TID 0000.0001)                       0
(PID.TID 0000.0001)     ;
(PID.TID 0000.0001) useRealFreshWaterFlux = /* Real Fresh Water Flux on/off flag*/
(PID.TID 0000.0001)                   F
(PID.TID 0000.0001)     ;
(PID.TID 0000.0001) temp_EvPrRn = /* Temp. of Evap/Prec/R (UNSET=use local T)(oC)*/
(PID.TID 0000.0001)                 1.234567000000000E+05
(PID.TID 0000.0001)     ;
(PID.TID 0000.0001) salt_EvPrRn = /* Salin. of Evap/Prec/R (UNSET=use local S)(psu)*/
(PID.TID 0000.0001)                 0.000000000000000E+00
(PID.TID 0000.0001)     ;
(PID.TID 0000.0001) selectAddFluid = /* option for mass source/sink of fluid (=0: off) */
(PID.TID 0000.0001)                       0
(PID.TID 0000.0001)     ;
(PID.TID 0000.0001) temp_addMass = /* Temp. of addMass array (UNSET=use local T)(oC)*/
(PID.TID 0000.0001)                 1.234567000000000E+05
(PID.TID 0000.0001)     ;
(PID.TID 0000.0001) salt_addMass = /* Salin. of addMass array (UNSET=use local S)(psu)*/
(PID.TID 0000.0001)                 0.000000000000000E+00
(PID.TID 0000.0001)     ;
(PID.TID 0000.0001) convertFW2Salt = /* convert F.W. Flux to Salt Flux (-1=use local S)(psu)*/
(PID.TID 0000.0001)                 3.500000000000000E+01
(PID.TID 0000.0001)     ;
(PID.TID 0000.0001) use3Dsolver = /* use 3-D pressure solver on/off flag */
(PID.TID 0000.0001)                   F
(PID.TID 0000.0001)     ;
(PID.TID 0000.0001) nonHydrostatic =  /* Non-Hydrostatic on/off flag */
(PID.TID 0000.0001)                   F
(PID.TID 0000.0001)     ;
(PID.TID 0000.0001) nh_Am2 = /* Non-Hydrostatic terms scaling factor */
(PID.TID 0000.0001)                 1.000000000000000E+00
(PID.TID 0000.0001)     ;
(PID.TID 0000.0001) implicitNHPress = /* Non-Hyd Pressure implicit factor (0-1)*/
(PID.TID 0000.0001)                 1.000000000000000E+00
(PID.TID 0000.0001)     ;
(PID.TID 0000.0001) selectNHfreeSurf = /* Non-Hyd (free-)Surface option */
(PID.TID 0000.0001)                       0
(PID.TID 0000.0001)     ;
(PID.TID 0000.0001) quasiHydrostatic = /* Quasi-Hydrostatic on/off flag */
(PID.TID 0000.0001)                   F
(PID.TID 0000.0001)     ;
(PID.TID 0000.0001) calc_wVelocity = /* vertical velocity calculation on/off flag */
(PID.TID 0000.0001)                   T
(PID.TID 0000.0001)     ;
(PID.TID 0000.0001) momStepping =  /* Momentum equation on/off flag */
(PID.TID 0000.0001)                   T
(PID.TID 0000.0001)     ;
(PID.TID 0000.0001) vectorInvariantMomentum= /* Vector-Invariant Momentum on/off */
(PID.TID 0000.0001)                   F
(PID.TID 0000.0001)     ;
(PID.TID 0000.0001) momAdvection =  /* Momentum advection on/off flag */
(PID.TID 0000.0001)                   T
(PID.TID 0000.0001)     ;
(PID.TID 0000.0001) momViscosity =  /* Momentum viscosity on/off flag */
(PID.TID 0000.0001)                   T
(PID.TID 0000.0001)     ;
(PID.TID 0000.0001) momImplVertAdv= /* Momentum implicit vert. advection on/off*/
(PID.TID 0000.0001)                   F
(PID.TID 0000.0001)     ;
(PID.TID 0000.0001) implicitViscosity = /* Implicit viscosity on/off flag */
(PID.TID 0000.0001)                   F
(PID.TID 0000.0001)     ;
(PID.TID 0000.0001) selectImplicitDrag= /* Implicit bot Drag options (0,1,2)*/
(PID.TID 0000.0001)                       0
(PID.TID 0000.0001)     0= Expl. ; 1= Impl. on provis. Vel ; 2= Fully Impl (with surf.P)
(PID.TID 0000.0001)     ;
(PID.TID 0000.0001) metricTerms =  /* metric-Terms on/off flag */
(PID.TID 0000.0001)                   T
(PID.TID 0000.0001)     ;
(PID.TID 0000.0001) useNHMTerms = /* Non-Hydrostatic Metric-Terms on/off */
(PID.TID 0000.0001)                   F
(PID.TID 0000.0001)     ;
(PID.TID 0000.0001) selectCoriMap = /* Coriolis Map options (0,1,2,3)*/
(PID.TID 0000.0001)                       2
(PID.TID 0000.0001)     0= f-Plane ; 1= Beta-Plane ; 2= Spherical ; 3= read from file
(PID.TID 0000.0001)     ;
(PID.TID 0000.0001) use3dCoriolis = /* 3-D Coriolis on/off flag */
(PID.TID 0000.0001)                   F
(PID.TID 0000.0001)     ;
(PID.TID 0000.0001) useCoriolis =  /* Coriolis on/off flag */
(PID.TID 0000.0001)                   T
(PID.TID 0000.0001)     ;
(PID.TID 0000.0001) useCDscheme =  /* CD scheme on/off flag */
(PID.TID 0000.0001)                   F
(PID.TID 0000.0001)     ;
(PID.TID 0000.0001) useEnergyConservingCoriolis= /* Flx-Form Coriolis scheme flag */
(PID.TID 0000.0001)                   F
(PID.TID 0000.0001)     ;
(PID.TID 0000.0001) useJamartWetPoints= /* Coriolis WetPoints method flag */
(PID.TID 0000.0001)                   F
(PID.TID 0000.0001)     ;
(PID.TID 0000.0001) useJamartMomAdv= /* V.I Non-linear terms Jamart flag */
(PID.TID 0000.0001)                   F
(PID.TID 0000.0001)     ;
(PID.TID 0000.0001) useAbsVorticity= /* V.I Works with f+zeta in Coriolis */
(PID.TID 0000.0001)                   F
(PID.TID 0000.0001)     ;
(PID.TID 0000.0001) selectVortScheme= /* V.I Scheme selector for Vorticity-Term */
(PID.TID 0000.0001)               123456789
(PID.TID 0000.0001)    = 0 : enstrophy (Shallow-Water Eq.) conserving scheme by Sadourny, JAS 75
(PID.TID 0000.0001)    = 1 : same as 0 with modified hFac
(PID.TID 0000.0001)    = 2 : energy conserving scheme (used by Sadourny in JAS 75 paper)
(PID.TID 0000.0001)    = 3 : energy (general) and enstrophy (2D, nonDiv.) conserving scheme
(PID.TID 0000.0001)          from Sadourny (Burridge & Haseler, ECMWF Rep.4, 1977)
(PID.TID 0000.0001)     ;
(PID.TID 0000.0001) upwindVorticity= /* V.I Upwind bias vorticity flag */
(PID.TID 0000.0001)                   F
(PID.TID 0000.0001)     ;
(PID.TID 0000.0001) highOrderVorticity= /* V.I High order vort. advect. flag */
(PID.TID 0000.0001)                   F
(PID.TID 0000.0001)     ;
(PID.TID 0000.0001) upwindShear= /* V.I Upwind vertical Shear advection flag */
(PID.TID 0000.0001)                   F
(PID.TID 0000.0001)     ;
(PID.TID 0000.0001) selectKEscheme= /* V.I Kinetic Energy scheme selector */
(PID.TID 0000.0001)                       0
(PID.TID 0000.0001)     ;
(PID.TID 0000.0001) momForcing =  /* Momentum forcing on/off flag */
(PID.TID 0000.0001)                   T
(PID.TID 0000.0001)     ;
(PID.TID 0000.0001) momTidalForcing = /* Momentum Tidal forcing on/off flag */
(PID.TID 0000.0001)                   T
(PID.TID 0000.0001)     ;
(PID.TID 0000.0001) momPressureForcing =  /* Momentum pressure term on/off flag */
(PID.TID 0000.0001)                   T
(PID.TID 0000.0001)     ;
(PID.TID 0000.0001) implicitIntGravWave= /* Implicit Internal Gravity Wave flag */
(PID.TID 0000.0001)                   F
(PID.TID 0000.0001)     ;
(PID.TID 0000.0001) staggerTimeStep =    /* Stagger time stepping on/off flag */
(PID.TID 0000.0001)                   T
(PID.TID 0000.0001)     ;
(PID.TID 0000.0001) doResetHFactors = /* reset thickness factors @ each time-step */
(PID.TID 0000.0001)                   F
(PID.TID 0000.0001)     ;
(PID.TID 0000.0001) multiDimAdvection =  /* enable/disable Multi-Dim Advection */
(PID.TID 0000.0001)                   T
(PID.TID 0000.0001)     ;
(PID.TID 0000.0001) useMultiDimAdvec =   /* Multi-Dim Advection is/is-not used */
(PID.TID 0000.0001)                   T
(PID.TID 0000.0001)     ;
(PID.TID 0000.0001) implicitDiffusion = /* Implicit Diffusion on/off flag */
(PID.TID 0000.0001)                   F
(PID.TID 0000.0001)     ;
(PID.TID 0000.0001) tempStepping =  /* Temperature equation on/off flag */
(PID.TID 0000.0001)                   T
(PID.TID 0000.0001)     ;
(PID.TID 0000.0001) tempAdvection = /* Temperature advection on/off flag */
(PID.TID 0000.0001)                   T
(PID.TID 0000.0001)     ;
(PID.TID 0000.0001) tempImplVertAdv = /* Temp. implicit vert. advection on/off */
(PID.TID 0000.0001)                   F
(PID.TID 0000.0001)     ;
(PID.TID 0000.0001) tempForcing  =  /* Temperature forcing on/off flag */
(PID.TID 0000.0001)                   T
(PID.TID 0000.0001)     ;
(PID.TID 0000.0001) doThetaClimRelax = /* apply SST relaxation on/off flag */
(PID.TID 0000.0001)                   F
(PID.TID 0000.0001)     ;
(PID.TID 0000.0001) tempIsActiveTr = /* Temp. is a dynamically Active Tracer */
(PID.TID 0000.0001)                   T
(PID.TID 0000.0001)     ;
(PID.TID 0000.0001) saltStepping =  /* Salinity equation on/off flag */
(PID.TID 0000.0001)                   T
(PID.TID 0000.0001)     ;
(PID.TID 0000.0001) saltAdvection = /* Salinity advection on/off flag */
(PID.TID 0000.0001)                   T
(PID.TID 0000.0001)     ;
(PID.TID 0000.0001) saltImplVertAdv = /* Sali. implicit vert. advection on/off */
(PID.TID 0000.0001)                   F
(PID.TID 0000.0001)     ;
(PID.TID 0000.0001) saltForcing  =  /* Salinity forcing on/off flag */
(PID.TID 0000.0001)                   T
(PID.TID 0000.0001)     ;
(PID.TID 0000.0001) doSaltClimRelax = /* apply SSS relaxation on/off flag */
(PID.TID 0000.0001)                   F
(PID.TID 0000.0001)     ;
(PID.TID 0000.0001) saltIsActiveTr = /* Salt  is a dynamically Active Tracer */
(PID.TID 0000.0001)                   T
(PID.TID 0000.0001)     ;
(PID.TID 0000.0001)  readBinaryPrec = /* Precision used for reading binary files */
(PID.TID 0000.0001)                      64
(PID.TID 0000.0001)     ;
(PID.TID 0000.0001) writeBinaryPrec = /* Precision used for writing binary files */
(PID.TID 0000.0001)                      32
(PID.TID 0000.0001)     ;
(PID.TID 0000.0001)  rwSuffixType =   /* select format of mds file suffix */
(PID.TID 0000.0001)                       0
(PID.TID 0000.0001)    = 0 : myIter (I10.10) ;   = 1 : 100*myTime (100th sec) ;
(PID.TID 0000.0001)    = 2 : myTime (seconds);   = 3 : myTime/360 (10th of hr);
(PID.TID 0000.0001)    = 4 : myTime/3600 (hours)
(PID.TID 0000.0001)     ;
(PID.TID 0000.0001)  globalFiles = /* write "global" (=not per tile) files */
(PID.TID 0000.0001)                   F
(PID.TID 0000.0001)     ;
(PID.TID 0000.0001)  useSingleCpuIO = /* only master MPI process does I/O */
(PID.TID 0000.0001)                   F
(PID.TID 0000.0001)     ;
(PID.TID 0000.0001)  useSingleCpuInput = /* only master process reads input */
(PID.TID 0000.0001)                   F
(PID.TID 0000.0001)     ;
(PID.TID 0000.0001) /* debLev[*]  : level of debug & auxiliary message printing */
(PID.TID 0000.0001) debLevZero =  0 ; /* level of disabled aux. msg printing */
(PID.TID 0000.0001)    debLevA =  1 ; /* level of minimum  aux. msg printing */
(PID.TID 0000.0001)    debLevB =  2 ; /* level of low aux. print (report read-file opening)*/
(PID.TID 0000.0001)    debLevC =  3 ; /* level of moderate debug prt (most pkgs debug msg) */
(PID.TID 0000.0001)    debLevD =  4 ; /* level of enhanced debug prt (add DEBUG_STATS prt) */
(PID.TID 0000.0001)    debLevE =  5 ; /* level of extensive debug printing */
(PID.TID 0000.0001) debugLevel =  /* select debug printing level */
(PID.TID 0000.0001)                       2
(PID.TID 0000.0001)     ;
(PID.TID 0000.0001)  plotLevel =  /* select PLOT_FIELD printing level */
(PID.TID 0000.0001)                       2
(PID.TID 0000.0001)     ;
(PID.TID 0000.0001) //
(PID.TID 0000.0001) // Elliptic solver(s) paramters ( PARM02 in namelist )
(PID.TID 0000.0001) //
(PID.TID 0000.0001) cg2dMaxIters =   /* Upper limit on 2d con. grad iterations  */
(PID.TID 0000.0001)                     150
(PID.TID 0000.0001)     ;
(PID.TID 0000.0001) cg2dChkResFreq =   /* 2d con. grad convergence test frequency */
(PID.TID 0000.0001)                       1
(PID.TID 0000.0001)     ;
(PID.TID 0000.0001) cg2dUseMinResSol= /* use cg2d last-iter(=0) / min-resid.(=1) solution */
(PID.TID 0000.0001)                       0
(PID.TID 0000.0001)     ;
(PID.TID 0000.0001) cg2dTargetResidual =   /* 2d con. grad target residual  */
(PID.TID 0000.0001)                 1.000000000000000E-07
(PID.TID 0000.0001)     ;
(PID.TID 0000.0001) cg2dTargetResWunit =   /* CG2d target residual [W units] */
(PID.TID 0000.0001)                -1.000000000000000E+00
(PID.TID 0000.0001)     ;
(PID.TID 0000.0001) cg2dPreCondFreq =   /* Freq. for updating cg2d preconditioner */
(PID.TID 0000.0001)                       1
(PID.TID 0000.0001)     ;
(PID.TID 0000.0001) useSRCGSolver =  /* use single reduction CG solver(s) */
(PID.TID 0000.0001)                   F
(PID.TID 0000.0001)     ;
(PID.TID 0000.0001) printResidualFreq = /* Freq. for printing CG residual */
(PID.TID 0000.0001)                       0
(PID.TID 0000.0001)     ;
(PID.TID 0000.0001) //
(PID.TID 0000.0001) // Time stepping paramters ( PARM03 in namelist )
(PID.TID 0000.0001) //
(PID.TID 0000.0001) deltaTMom =   /* Momentum equation timestep ( s ) */
(PID.TID 0000.0001)                 1.200000000000000E+03
(PID.TID 0000.0001)     ;
(PID.TID 0000.0001) deltaTFreeSurf = /* FreeSurface equation timestep ( s ) */
(PID.TID 0000.0001)                 1.200000000000000E+03
(PID.TID 0000.0001)     ;
(PID.TID 0000.0001) dTtracerLev =  /* Tracer equation timestep ( s ) */
(PID.TID 0000.0001)                 1.200000000000000E+03       /* K =  1 */
(PID.TID 0000.0001)     ;
(PID.TID 0000.0001) deltaTClock  =   /* Model clock timestep ( s ) */
(PID.TID 0000.0001)                 1.200000000000000E+03
(PID.TID 0000.0001)     ;
(PID.TID 0000.0001) cAdjFreq =   /* Convective adjustment interval ( s ) */
(PID.TID 0000.0001)                 0.000000000000000E+00
(PID.TID 0000.0001)     ;
(PID.TID 0000.0001) momForcingOutAB = /* =1: take Momentum Forcing out of Adams-Bash. stepping */
(PID.TID 0000.0001)                       0
(PID.TID 0000.0001)     ;
(PID.TID 0000.0001) tracForcingOutAB = /* =1: take T,S,pTr Forcing out of Adams-Bash. stepping */
(PID.TID 0000.0001)                       0
(PID.TID 0000.0001)     ;
(PID.TID 0000.0001) momDissip_In_AB = /* put Dissipation Tendency in Adams-Bash. stepping */
(PID.TID 0000.0001)                   T
(PID.TID 0000.0001)     ;
(PID.TID 0000.0001) doAB_onGtGs = /* apply AB on Tendencies (rather than on T,S)*/
(PID.TID 0000.0001)                   T
(PID.TID 0000.0001)     ;
(PID.TID 0000.0001) abEps =   /* Adams-Bashforth-2 stabilizing weight */
(PID.TID 0000.0001)                 1.000000000000000E-02
(PID.TID 0000.0001)     ;
(PID.TID 0000.0001) applyExchUV_early = /* Apply EXCH to U,V earlier in time-step */
(PID.TID 0000.0001)                   F
(PID.TID 0000.0001)     ;
(PID.TID 0000.0001) pickupStrictlyMatch= /* stop if pickup do not strictly match */
(PID.TID 0000.0001)                   T
(PID.TID 0000.0001)     ;
(PID.TID 0000.0001) nIter0   =   /* Run starting timestep number */
(PID.TID 0000.0001)                       0
(PID.TID 0000.0001)     ;
(PID.TID 0000.0001) nTimeSteps = /* Number of timesteps */
(PID.TID 0000.0001)                      24
(PID.TID 0000.0001)     ;
(PID.TID 0000.0001) nEndIter =   /* Run ending timestep number */
(PID.TID 0000.0001)                      24
(PID.TID 0000.0001)     ;
(PID.TID 0000.0001) baseTime =   /* Model base time ( s ) */
(PID.TID 0000.0001)                 0.000000000000000E+00
(PID.TID 0000.0001)     ;
(PID.TID 0000.0001) startTime =  /* Run start time ( s ) */
(PID.TID 0000.0001)                 0.000000000000000E+00
(PID.TID 0000.0001)     ;
(PID.TID 0000.0001) endTime  =   /* Integration ending time ( s ) */
(PID.TID 0000.0001)                 2.880000000000000E+04
(PID.TID 0000.0001)     ;
(PID.TID 0000.0001) pChkPtFreq = /* Permanent restart/pickup file interval ( s ) */
(PID.TID 0000.0001)                 0.000000000000000E+00
(PID.TID 0000.0001)     ;
(PID.TID 0000.0001) chkPtFreq  = /* Rolling restart/pickup file interval ( s ) */
(PID.TID 0000.0001)                 0.000000000000000E+00
(PID.TID 0000.0001)     ;
(PID.TID 0000.0001) pickup_write_mdsio =   /* Model IO flag. */
(PID.TID 0000.0001)                   T
(PID.TID 0000.0001)     ;
(PID.TID 0000.0001) pickup_read_mdsio =   /* Model IO flag. */
(PID.TID 0000.0001)                   T
(PID.TID 0000.0001)     ;
(PID.TID 0000.0001) pickup_write_mnc =   /* Model IO flag. */
(PID.TID 0000.0001)                   F
(PID.TID 0000.0001)     ;
(PID.TID 0000.0001) pickup_read_mnc =   /* Model IO flag. */
(PID.TID 0000.0001)                   F
(PID.TID 0000.0001)     ;
(PID.TID 0000.0001) writePickupAtEnd =   /* Model IO flag. */
(PID.TID 0000.0001)                   T
(PID.TID 0000.0001)     ;
(PID.TID 0000.0001) dumpFreq =   /* Model state write out interval ( s ). */
(PID.TID 0000.0001)                 1.440000000000000E+04
(PID.TID 0000.0001)     ;
(PID.TID 0000.0001) dumpInitAndLast= /* write out Initial & Last iter. model state */
(PID.TID 0000.0001)                   T
(PID.TID 0000.0001)     ;
(PID.TID 0000.0001) snapshot_mdsio =   /* Model IO flag. */
(PID.TID 0000.0001)                   F
(PID.TID 0000.0001)     ;
(PID.TID 0000.0001) snapshot_mnc =   /* Model IO flag. */
(PID.TID 0000.0001)                   T
(PID.TID 0000.0001)     ;
(PID.TID 0000.0001) monitorFreq =   /* Monitor output interval ( s ). */
(PID.TID 0000.0001)                 3.600000000000000E+03
(PID.TID 0000.0001)     ;
(PID.TID 0000.0001) monitorSelect = /* select group of variables to monitor */
(PID.TID 0000.0001)                       3
(PID.TID 0000.0001)     ;
(PID.TID 0000.0001) monitor_stdio =   /* Model IO flag. */
(PID.TID 0000.0001)                   T
(PID.TID 0000.0001)     ;
(PID.TID 0000.0001) monitor_mnc =   /* Model IO flag. */
(PID.TID 0000.0001)                   F
(PID.TID 0000.0001)     ;
(PID.TID 0000.0001) externForcingPeriod =   /* forcing period (s) */
(PID.TID 0000.0001)                 0.000000000000000E+00
(PID.TID 0000.0001)     ;
(PID.TID 0000.0001) externForcingCycle =   /* period of the cyle (s). */
(PID.TID 0000.0001)                 0.000000000000000E+00
(PID.TID 0000.0001)     ;
(PID.TID 0000.0001) tauThetaClimRelax =   /* relaxation time scale (s) */
(PID.TID 0000.0001)                 0.000000000000000E+00
(PID.TID 0000.0001)     ;
(PID.TID 0000.0001) tauSaltClimRelax =   /* relaxation time scale (s) */
(PID.TID 0000.0001)                 0.000000000000000E+00
(PID.TID 0000.0001)     ;
(PID.TID 0000.0001) latBandClimRelax =   /* max. Lat. where relaxation */
(PID.TID 0000.0001)                 1.800000000000000E+02
(PID.TID 0000.0001)     ;
(PID.TID 0000.0001) //
(PID.TID 0000.0001) // Gridding paramters ( PARM04 in namelist )
(PID.TID 0000.0001) //
(PID.TID 0000.0001) usingCartesianGrid = /* Cartesian coordinates flag ( True/False ) */
(PID.TID 0000.0001)                   F
(PID.TID 0000.0001)     ;
(PID.TID 0000.0001) usingCylindricalGrid = /* Cylindrical coordinates flag ( True/False ) */
(PID.TID 0000.0001)                   F
(PID.TID 0000.0001)     ;
(PID.TID 0000.0001) usingSphericalPolarGrid = /* Spherical coordinates flag ( True/False ) */
(PID.TID 0000.0001)                   T
(PID.TID 0000.0001)     ;
(PID.TID 0000.0001) usingCurvilinearGrid = /* Curvilinear coordinates flag ( True/False ) */
(PID.TID 0000.0001)                   F
(PID.TID 0000.0001)     ;
(PID.TID 0000.0001) useMin4hFacEdges = /* set hFacW,S as minimum of adjacent hFacC factor */
(PID.TID 0000.0001)                   F
(PID.TID 0000.0001)     ;
(PID.TID 0000.0001) selectSigmaCoord = /* Hybrid-Sigma Vert. Coordinate option */
(PID.TID 0000.0001)                       0
(PID.TID 0000.0001)     ;
(PID.TID 0000.0001) rSigmaBnd = /* r/sigma transition ( units of r ==  m ) */
(PID.TID 0000.0001)                 1.234567000000000E+05
(PID.TID 0000.0001)     ;
(PID.TID 0000.0001) rkSign =   /* index orientation relative to vertical coordinate */
(PID.TID 0000.0001)                -1.000000000000000E+00
(PID.TID 0000.0001)     ;
(PID.TID 0000.0001) gravitySign = /* gravity orientation relative to vertical coordinate */
(PID.TID 0000.0001)                -1.000000000000000E+00
(PID.TID 0000.0001)     ;
(PID.TID 0000.0001) seaLev_Z =  /* reference height of sea-level [m] */
(PID.TID 0000.0001)                 0.000000000000000E+00
(PID.TID 0000.0001)     ;
(PID.TID 0000.0001) top_Pres =  /* reference pressure at the top [Pa] */
(PID.TID 0000.0001)                 0.000000000000000E+00
(PID.TID 0000.0001)     ;
(PID.TID 0000.0001) mass2rUnit = /* convert mass per unit area [kg/m2] to r-units [m] */
(PID.TID 0000.0001)                 1.000200040008002E-03
(PID.TID 0000.0001)     ;
(PID.TID 0000.0001) rUnit2mass = /* convert r-units [m] to mass per unit area [kg/m2] */
(PID.TID 0000.0001)                 9.998000000000000E+02
(PID.TID 0000.0001)     ;
(PID.TID 0000.0001) drC =   /* C spacing ( units of r ) */
(PID.TID 0000.0001)     2 @  5.000000000000000E+02              /* K =  1:  2 */
(PID.TID 0000.0001)     ;
(PID.TID 0000.0001) drF =   /* W spacing ( units of r ) */
(PID.TID 0000.0001)                 1.000000000000000E+03       /* K =  1 */
(PID.TID 0000.0001)     ;
(PID.TID 0000.0001) delX = /* U spacing ( m - cartesian, degrees - spherical ) */
(PID.TID 0000.0001)   100 @  2.500000000000000E-01              /* I =  1:100 */
(PID.TID 0000.0001)     ;
(PID.TID 0000.0001) delY = /* V spacing ( m - cartesian, degrees - spherical ) */
(PID.TID 0000.0001)   100 @  2.500000000000000E-01              /* J =  1:100 */
(PID.TID 0000.0001)     ;
(PID.TID 0000.0001) xgOrigin = /* X-axis origin of West  edge (cartesian: m, lat-lon: deg) */
(PID.TID 0000.0001)                 0.000000000000000E+00
(PID.TID 0000.0001)     ;
(PID.TID 0000.0001) ygOrigin = /* Y-axis origin of South edge (cartesian: m, lat-lon: deg) */
(PID.TID 0000.0001)                 3.000000000000000E+01
(PID.TID 0000.0001)     ;
(PID.TID 0000.0001) rSphere =  /* Radius ( ignored - cartesian, m - spherical ) */
(PID.TID 0000.0001)                 6.370000000000000E+06
(PID.TID 0000.0001)     ;
(PID.TID 0000.0001) deepAtmosphere = /* Deep/Shallow Atmosphere flag (True/False) */
(PID.TID 0000.0001)                   F
(PID.TID 0000.0001)     ;
(PID.TID 0000.0001) xC =  /* xC(:,1,:,1) : P-point X coord ( deg. or m if cartesian) */
(PID.TID 0000.0001)                 1.250000000000000E-01,      /* I =  1 */
(PID.TID 0000.0001)                 3.750000000000000E-01,      /* I =  2 */
(PID.TID 0000.0001)                 6.250000000000000E-01,      /* I =  3 */
(PID.TID 0000.0001)      . . .
(PID.TID 0000.0001)                 5.625000000000000E+00,      /* I = 23 */
(PID.TID 0000.0001)                 5.875000000000000E+00,      /* I = 24 */
(PID.TID 0000.0001)                 6.125000000000000E+00,      /* I = 25 */
(PID.TID 0000.0001)                 6.375000000000000E+00,      /* I = 26 */
(PID.TID 0000.0001)                 6.625000000000000E+00,      /* I = 27 */
(PID.TID 0000.0001)                 6.875000000000000E+00,      /* I = 28 */
(PID.TID 0000.0001)      . . .
(PID.TID 0000.0001)                 1.187500000000000E+01,      /* I = 48 */
(PID.TID 0000.0001)                 1.212500000000000E+01,      /* I = 49 */
(PID.TID 0000.0001)                 1.237500000000000E+01,      /* I = 50 */
(PID.TID 0000.0001)                 1.262500000000000E+01,      /* I = 51 */
(PID.TID 0000.0001)                 1.287500000000000E+01,      /* I = 52 */
(PID.TID 0000.0001)                 1.312500000000000E+01,      /* I = 53 */
(PID.TID 0000.0001)      . . .
(PID.TID 0000.0001)                 1.812500000000000E+01,      /* I = 73 */
(PID.TID 0000.0001)                 1.837500000000000E+01,      /* I = 74 */
(PID.TID 0000.0001)                 1.862500000000000E+01,      /* I = 75 */
(PID.TID 0000.0001)                 1.887500000000000E+01,      /* I = 76 */
(PID.TID 0000.0001)                 1.912500000000000E+01,      /* I = 77 */
(PID.TID 0000.0001)                 1.937500000000000E+01,      /* I = 78 */
(PID.TID 0000.0001)      . . .
(PID.TID 0000.0001)                 2.437500000000000E+01,      /* I = 98 */
(PID.TID 0000.0001)                 2.462500000000000E+01,      /* I = 99 */
(PID.TID 0000.0001)                 2.487500000000000E+01       /* I =100 */
(PID.TID 0000.0001)     ;
(PID.TID 0000.0001) yC =  /* yC(1,:,1,:) : P-point Y coord ( deg. or m if cartesian) */
(PID.TID 0000.0001)                 3.012500000000000E+01,      /* J =  1 */
(PID.TID 0000.0001)                 3.037500000000000E+01,      /* J =  2 */
(PID.TID 0000.0001)                 3.062500000000000E+01,      /* J =  3 */
(PID.TID 0000.0001)      . . .
(PID.TID 0000.0001)                 3.562500000000000E+01,      /* J = 23 */
(PID.TID 0000.0001)                 3.587500000000000E+01,      /* J = 24 */
(PID.TID 0000.0001)                 3.612500000000000E+01,      /* J = 25 */
(PID.TID 0000.0001)                 3.637500000000000E+01,      /* J = 26 */
(PID.TID 0000.0001)                 3.662500000000000E+01,      /* J = 27 */
(PID.TID 0000.0001)                 3.687500000000000E+01,      /* J = 28 */
(PID.TID 0000.0001)      . . .
(PID.TID 0000.0001)                 4.187500000000000E+01,      /* J = 48 */
(PID.TID 0000.0001)                 4.212500000000000E+01,      /* J = 49 */
(PID.TID 0000.0001)                 4.237500000000000E+01,      /* J = 50 */
(PID.TID 0000.0001)                 4.262500000000000E+01,      /* J = 51 */
(PID.TID 0000.0001)                 4.287500000000000E+01,      /* J = 52 */
(PID.TID 0000.0001)                 4.312500000000000E+01,      /* J = 53 */
(PID.TID 0000.0001)      . . .
(PID.TID 0000.0001)                 4.812500000000000E+01,      /* J = 73 */
(PID.TID 0000.0001)                 4.837500000000000E+01,      /* J = 74 */
(PID.TID 0000.0001)                 4.862500000000000E+01,      /* J = 75 */
(PID.TID 0000.0001)                 4.887500000000000E+01,      /* J = 76 */
(PID.TID 0000.0001)                 4.912500000000000E+01,      /* J = 77 */
(PID.TID 0000.0001)                 4.937500000000000E+01,      /* J = 78 */
(PID.TID 0000.0001)      . . .
(PID.TID 0000.0001)                 5.437500000000000E+01,      /* J = 98 */
(PID.TID 0000.0001)                 5.462500000000000E+01,      /* J = 99 */
(PID.TID 0000.0001)                 5.487500000000000E+01       /* J =100 */
(PID.TID 0000.0001)     ;
(PID.TID 0000.0001) rcoord = /* P-point R coordinate (  units of r ) */
(PID.TID 0000.0001)                -5.000000000000000E+02       /* K =  1 */
(PID.TID 0000.0001)     ;
(PID.TID 0000.0001) rF =   /* W-Interf. R coordinate (  units of r ) */
(PID.TID 0000.0001)                 0.000000000000000E+00,      /* K =  1 */
(PID.TID 0000.0001)                -1.000000000000000E+03       /* K =  2 */
(PID.TID 0000.0001)     ;
(PID.TID 0000.0001) deepFacC = /* deep-model grid factor @ cell-Center (-) */
(PID.TID 0000.0001)                 1.000000000000000E+00       /* K =  1 */
(PID.TID 0000.0001)     ;
(PID.TID 0000.0001) deepFacF = /* deep-model grid factor @ W-Interface (-) */
(PID.TID 0000.0001)     2 @  1.000000000000000E+00              /* K =  1:  2 */
(PID.TID 0000.0001)     ;
(PID.TID 0000.0001) rVel2wUnit = /* convert units: rVel -> wSpeed (=1 if z-coord)*/
(PID.TID 0000.0001)     2 @  1.000000000000000E+00              /* K =  1:  2 */
(PID.TID 0000.0001)     ;
(PID.TID 0000.0001) wUnit2rVel = /* convert units: wSpeed -> rVel (=1 if z-coord)*/
(PID.TID 0000.0001)     2 @  1.000000000000000E+00              /* K =  1:  2 */
(PID.TID 0000.0001)     ;
(PID.TID 0000.0001) dBdrRef = /* Vertical grad. of reference buoyancy [(m/s/r)^2] */
(PID.TID 0000.0001)                 0.000000000000000E+00       /* K =  1 */
(PID.TID 0000.0001)     ;
(PID.TID 0000.0001) rotateGrid = /* use rotated grid ( True/False ) */
(PID.TID 0000.0001)                   F
(PID.TID 0000.0001)     ;
(PID.TID 0000.0001) phiEuler = /* Euler angle, rotation about original z-coordinate [rad] */
(PID.TID 0000.0001)                 0.000000000000000E+00
(PID.TID 0000.0001)     ;
(PID.TID 0000.0001) thetaEuler = /* Euler angle, rotation about new x-coordinate [rad] */
(PID.TID 0000.0001)                 0.000000000000000E+00
(PID.TID 0000.0001)     ;
(PID.TID 0000.0001) psiEuler = /* Euler angle, rotation about new z-coordinate [rad] */
(PID.TID 0000.0001)                 0.000000000000000E+00
(PID.TID 0000.0001)     ;
(PID.TID 0000.0001) dxF =  /* dxF(:,1,:,1) ( units: m ) */
(PID.TID 0000.0001)   100 @  2.404025285051817E+04              /* I =  1:100 */
(PID.TID 0000.0001)     ;
(PID.TID 0000.0001) dxF =  /* dxF(1,:,1,:) ( units: m ) */
(PID.TID 0000.0001)                 2.404025285051817E+04,      /* J =  1 */
(PID.TID 0000.0001)                 2.397915730173338E+04,      /* J =  2 */
(PID.TID 0000.0001)                 2.391760522435877E+04,      /* J =  3 */
(PID.TID 0000.0001)      . . .
(PID.TID 0000.0001)                 2.259256015386935E+04,      /* J = 23 */
(PID.TID 0000.0001)                 2.252170485848710E+04,      /* J = 24 */
(PID.TID 0000.0001)                 2.245042078230868E+04,      /* J = 25 */
(PID.TID 0000.0001)                 2.237870928248015E+04,      /* J = 26 */
(PID.TID 0000.0001)                 2.230657172428511E+04,      /* J = 27 */
(PID.TID 0000.0001)                 2.223400948111865E+04,      /* J = 28 */
(PID.TID 0000.0001)      . . .
(PID.TID 0000.0001)                 2.069576649803291E+04,      /* J = 48 */
(PID.TID 0000.0001)                 2.061461720595564E+04,      /* J = 49 */
(PID.TID 0000.0001)                 2.053307544128210E+04,      /* J = 50 */
(PID.TID 0000.0001)                 2.045114275644995E+04,      /* J = 51 */
(PID.TID 0000.0001)                 2.036882071133940E+04,      /* J = 52 */
(PID.TID 0000.0001)                 2.028611087324353E+04,      /* J = 53 */
(PID.TID 0000.0001)      . . .
(PID.TID 0000.0001)                 1.855295556960817E+04,      /* J = 73 */
(PID.TID 0000.0001)                 1.846247692872708E+04,      /* J = 74 */
(PID.TID 0000.0001)                 1.837164678889836E+04,      /* J = 75 */
(PID.TID 0000.0001)                 1.828046687939695E+04,      /* J = 76 */
(PID.TID 0000.0001)                 1.818893893615687E+04,      /* J = 77 */
(PID.TID 0000.0001)                 1.809706470173824E+04,      /* J = 78 */
(PID.TID 0000.0001)      . . .
(PID.TID 0000.0001)                 1.618959965541925E+04,      /* J = 98 */
(PID.TID 0000.0001)                 1.609086721461336E+04,      /* J = 99 */
(PID.TID 0000.0001)                 1.599182842689019E+04       /* J =100 */
(PID.TID 0000.0001)     ;
(PID.TID 0000.0001) dyF =  /* dyF(:,1,:,1) ( units: m ) */
(PID.TID 0000.0001)   100 @  2.779436833800970E+04              /* I =  1:100 */
(PID.TID 0000.0001)     ;
(PID.TID 0000.0001) dyF =  /* dyF(1,:,1,:) ( units: m ) */
(PID.TID 0000.0001)   100 @  2.779436833800970E+04              /* J =  1:100 */
(PID.TID 0000.0001)     ;
(PID.TID 0000.0001) dxG =  /* dxG(:,1,:,1) ( units: m ) */
(PID.TID 0000.0001)   100 @  2.407062906285827E+04              /* I =  1:100 */
(PID.TID 0000.0001)     ;
(PID.TID 0000.0001) dxG =  /* dxG(1,:,1,:) ( units: m ) */
(PID.TID 0000.0001)                 2.407062906285827E+04,      /* J =  1 */
(PID.TID 0000.0001)                 2.400976221510167E+04,      /* J =  2 */
(PID.TID 0000.0001)                 2.394843825608182E+04,      /* J =  3 */
(PID.TID 0000.0001)      . . .
(PID.TID 0000.0001)                 2.262782658688523E+04,      /* J = 23 */
(PID.TID 0000.0001)                 2.255718618828079E+04,      /* J = 24 */
(PID.TID 0000.0001)                 2.248611633336681E+04,      /* J = 25 */
(PID.TID 0000.0001)                 2.241461837521088E+04,      /* J = 26 */
(PID.TID 0000.0001)                 2.234269367503106E+04,      /* J = 27 */
(PID.TID 0000.0001)                 2.227034360216997E+04,      /* J = 28 */
(PID.TID 0000.0001)      . . .
(PID.TID 0000.0001)                 2.073619348375353E+04,      /* J = 48 */
(PID.TID 0000.0001)                 2.065524100780463E+04,      /* J = 49 */
(PID.TID 0000.0001)                 2.057389528584083E+04,      /* J = 50 */
(PID.TID 0000.0001)                 2.049215786656742E+04,      /* J = 51 */
(PID.TID 0000.0001)                 2.041003030614704E+04,      /* J = 52 */
(PID.TID 0000.0001)                 2.032751416817006E+04,      /* J = 53 */
(PID.TID 0000.0001)      . . .
(PID.TID 0000.0001)                 1.859806253937388E+04,      /* J = 73 */
(PID.TID 0000.0001)                 1.850776029435474E+04,      /* J = 74 */
(PID.TID 0000.0001)                 1.841710568825795E+04,      /* J = 75 */
(PID.TID 0000.0001)                 1.832610044701655E+04,      /* J = 76 */
(PID.TID 0000.0001)                 1.823474630323914E+04,      /* J = 77 */
(PID.TID 0000.0001)                 1.814304499617694E+04,      /* J = 78 */
(PID.TID 0000.0001)      . . .
(PID.TID 0000.0001)                 1.623885040808586E+04,      /* J = 98 */
(PID.TID 0000.0001)                 1.614027184600079E+04,      /* J = 99 */
(PID.TID 0000.0001)                 1.604138599640548E+04       /* J =100 */
(PID.TID 0000.0001)     ;
(PID.TID 0000.0001) dyG =  /* dyG(:,1,:,1) ( units: m ) */
(PID.TID 0000.0001)   100 @  2.779436833800970E+04              /* I =  1:100 */
(PID.TID 0000.0001)     ;
(PID.TID 0000.0001) dyG =  /* dyG(1,:,1,:) ( units: m ) */
(PID.TID 0000.0001)   100 @  2.779436833800970E+04              /* J =  1:100 */
(PID.TID 0000.0001)     ;
(PID.TID 0000.0001) dxC =  /* dxC(:,1,:,1) ( units: m ) */
(PID.TID 0000.0001)   100 @  2.404025285051817E+04              /* I =  1:100 */
(PID.TID 0000.0001)     ;
(PID.TID 0000.0001) dxC =  /* dxC(1,:,1,:) ( units: m ) */
(PID.TID 0000.0001)                 2.404025285051817E+04,      /* J =  1 */
(PID.TID 0000.0001)                 2.397915730173338E+04,      /* J =  2 */
(PID.TID 0000.0001)                 2.391760522435877E+04,      /* J =  3 */
(PID.TID 0000.0001)      . . .
(PID.TID 0000.0001)                 2.259256015386935E+04,      /* J = 23 */
(PID.TID 0000.0001)                 2.252170485848710E+04,      /* J = 24 */
(PID.TID 0000.0001)                 2.245042078230868E+04,      /* J = 25 */
(PID.TID 0000.0001)                 2.237870928248015E+04,      /* J = 26 */
(PID.TID 0000.0001)                 2.230657172428511E+04,      /* J = 27 */
(PID.TID 0000.0001)                 2.223400948111865E+04,      /* J = 28 */
(PID.TID 0000.0001)      . . .
(PID.TID 0000.0001)                 2.069576649803291E+04,      /* J = 48 */
(PID.TID 0000.0001)                 2.061461720595564E+04,      /* J = 49 */
(PID.TID 0000.0001)                 2.053307544128210E+04,      /* J = 50 */
(PID.TID 0000.0001)                 2.045114275644995E+04,      /* J = 51 */
(PID.TID 0000.0001)                 2.036882071133940E+04,      /* J = 52 */
(PID.TID 0000.0001)                 2.028611087324353E+04,      /* J = 53 */
(PID.TID 0000.0001)      . . .
(PID.TID 0000.0001)                 1.855295556960817E+04,      /* J = 73 */
(PID.TID 0000.0001)                 1.846247692872708E+04,      /* J = 74 */
(PID.TID 0000.0001)                 1.837164678889836E+04,      /* J = 75 */
(PID.TID 0000.0001)                 1.828046687939695E+04,      /* J = 76 */
(PID.TID 0000.0001)                 1.818893893615687E+04,      /* J = 77 */
(PID.TID 0000.0001)                 1.809706470173824E+04,      /* J = 78 */
(PID.TID 0000.0001)      . . .
(PID.TID 0000.0001)                 1.618959965541925E+04,      /* J = 98 */
(PID.TID 0000.0001)                 1.609086721461336E+04,      /* J = 99 */
(PID.TID 0000.0001)                 1.599182842689019E+04       /* J =100 */
(PID.TID 0000.0001)     ;
(PID.TID 0000.0001) dyC =  /* dyC(:,1,:,1) ( units: m ) */
(PID.TID 0000.0001)   100 @  2.779436833800970E+04              /* I =  1:100 */
(PID.TID 0000.0001)     ;
(PID.TID 0000.0001) dyC =  /* dyC(1,:,1,:) ( units: m ) */
(PID.TID 0000.0001)   100 @  2.779436833800970E+04              /* J =  1:100 */
(PID.TID 0000.0001)     ;
(PID.TID 0000.0001) dxV =  /* dxV(:,1,:,1) ( units: m ) */
(PID.TID 0000.0001)   100 @  2.407062906285827E+04              /* I =  1:100 */
(PID.TID 0000.0001)     ;
(PID.TID 0000.0001) dxV =  /* dxV(1,:,1,:) ( units: m ) */
(PID.TID 0000.0001)                 2.407062906285827E+04,      /* J =  1 */
(PID.TID 0000.0001)                 2.400976221510167E+04,      /* J =  2 */
(PID.TID 0000.0001)                 2.394843825608182E+04,      /* J =  3 */
(PID.TID 0000.0001)      . . .
(PID.TID 0000.0001)                 2.262782658688523E+04,      /* J = 23 */
(PID.TID 0000.0001)                 2.255718618828079E+04,      /* J = 24 */
(PID.TID 0000.0001)                 2.248611633336681E+04,      /* J = 25 */
(PID.TID 0000.0001)                 2.241461837521088E+04,      /* J = 26 */
(PID.TID 0000.0001)                 2.234269367503106E+04,      /* J = 27 */
(PID.TID 0000.0001)                 2.227034360216997E+04,      /* J = 28 */
(PID.TID 0000.0001)      . . .
(PID.TID 0000.0001)                 2.073619348375353E+04,      /* J = 48 */
(PID.TID 0000.0001)                 2.065524100780463E+04,      /* J = 49 */
(PID.TID 0000.0001)                 2.057389528584083E+04,      /* J = 50 */
(PID.TID 0000.0001)                 2.049215786656742E+04,      /* J = 51 */
(PID.TID 0000.0001)                 2.041003030614704E+04,      /* J = 52 */
(PID.TID 0000.0001)                 2.032751416817006E+04,      /* J = 53 */
(PID.TID 0000.0001)      . . .
(PID.TID 0000.0001)                 1.859806253937388E+04,      /* J = 73 */
(PID.TID 0000.0001)                 1.850776029435474E+04,      /* J = 74 */
(PID.TID 0000.0001)                 1.841710568825795E+04,      /* J = 75 */
(PID.TID 0000.0001)                 1.832610044701655E+04,      /* J = 76 */
(PID.TID 0000.0001)                 1.823474630323914E+04,      /* J = 77 */
(PID.TID 0000.0001)                 1.814304499617694E+04,      /* J = 78 */
(PID.TID 0000.0001)      . . .
(PID.TID 0000.0001)                 1.623885040808586E+04,      /* J = 98 */
(PID.TID 0000.0001)                 1.614027184600079E+04,      /* J = 99 */
(PID.TID 0000.0001)                 1.604138599640548E+04       /* J =100 */
(PID.TID 0000.0001)     ;
(PID.TID 0000.0001) dyU =  /* dyU(:,1,:,1) ( units: m ) */
(PID.TID 0000.0001)   100 @  2.779436833800970E+04              /* I =  1:100 */
(PID.TID 0000.0001)     ;
(PID.TID 0000.0001) dyU =  /* dyU(1,:,1,:) ( units: m ) */
(PID.TID 0000.0001)   100 @  2.779436833800970E+04              /* J =  1:100 */
(PID.TID 0000.0001)     ;
(PID.TID 0000.0001) rA  =  /* rA (:,1,:,1) ( units: m^2 ) */
(PID.TID 0000.0001)   100 @  6.681831126132613E+08              /* I =  1:100 */
(PID.TID 0000.0001)     ;
(PID.TID 0000.0001) rA  =  /* rA (1,:,1,:) ( units: m^2 ) */
(PID.TID 0000.0001)                 6.681831126132613E+08,      /* J =  1 */
(PID.TID 0000.0001)                 6.664850017735666E+08,      /* J =  2 */
(PID.TID 0000.0001)                 6.647742020202218E+08,      /* J =  3 */
(PID.TID 0000.0001)      . . .
(PID.TID 0000.0001)                 6.279454404818789E+08,      /* J = 23 */
(PID.TID 0000.0001)                 6.259760638655939E+08,      /* J = 24 */
(PID.TID 0000.0001)                 6.239947695673566E+08,      /* J = 25 */
(PID.TID 0000.0001)                 6.220015953081915E+08,      /* J = 26 */
(PID.TID 0000.0001)                 6.199965790352323E+08,      /* J = 27 */
(PID.TID 0000.0001)                 6.179797589211514E+08,      /* J = 28 */
(PID.TID 0000.0001)      . . .
(PID.TID 0000.0001)                 5.752253007719541E+08,      /* J = 48 */
(PID.TID 0000.0001)                 5.729698092467850E+08,      /* J = 49 */
(PID.TID 0000.0001)                 5.707034092024101E+08,      /* J = 50 */
(PID.TID 0000.0001)                 5.684261437877442E+08,      /* J = 51 */
(PID.TID 0000.0001)                 5.661380563587053E+08,      /* J = 52 */
(PID.TID 0000.0001)                 5.638391904771134E+08,      /* J = 53 */
(PID.TID 0000.0001)      . . .
(PID.TID 0000.0001)                 5.156672717944663E+08,      /* J = 73 */
(PID.TID 0000.0001)                 5.131524771180277E+08,      /* J = 74 */
(PID.TID 0000.0001)                 5.106279127581214E+08,      /* J = 75 */
(PID.TID 0000.0001)                 5.080936267787932E+08,      /* J = 76 */
(PID.TID 0000.0001)                 5.055496674292141E+08,      /* J = 77 */
(PID.TID 0000.0001)                 5.029960831426970E+08,      /* J = 78 */
(PID.TID 0000.0001)      . . .
(PID.TID 0000.0001)                 4.499793391102898E+08,      /* J = 98 */
(PID.TID 0000.0001)                 4.472351354605254E+08,      /* J = 99 */
(PID.TID 0000.0001)                 4.444824170984655E+08       /* J =100 */
(PID.TID 0000.0001)     ;
(PID.TID 0000.0001) rAw =  /* rAw(:,1,:,1) ( units: m^2 ) */
(PID.TID 0000.0001)   100 @  6.681831126132613E+08              /* I =  1:100 */
(PID.TID 0000.0001)     ;
(PID.TID 0000.0001) rAw =  /* rAw(1,:,1,:) ( units: m^2 ) */
(PID.TID 0000.0001)                 6.681831126132613E+08,      /* J =  1 */
(PID.TID 0000.0001)                 6.664850017735666E+08,      /* J =  2 */
(PID.TID 0000.0001)                 6.647742020202218E+08,      /* J =  3 */
(PID.TID 0000.0001)      . . .
(PID.TID 0000.0001)                 6.279454404818789E+08,      /* J = 23 */
(PID.TID 0000.0001)                 6.259760638655939E+08,      /* J = 24 */
(PID.TID 0000.0001)                 6.239947695673566E+08,      /* J = 25 */
(PID.TID 0000.0001)                 6.220015953081915E+08,      /* J = 26 */
(PID.TID 0000.0001)                 6.199965790352323E+08,      /* J = 27 */
(PID.TID 0000.0001)                 6.179797589211514E+08,      /* J = 28 */
(PID.TID 0000.0001)      . . .
(PID.TID 0000.0001)                 5.752253007719541E+08,      /* J = 48 */
(PID.TID 0000.0001)                 5.729698092467850E+08,      /* J = 49 */
(PID.TID 0000.0001)                 5.707034092024101E+08,      /* J = 50 */
(PID.TID 0000.0001)                 5.684261437877442E+08,      /* J = 51 */
(PID.TID 0000.0001)                 5.661380563587053E+08,      /* J = 52 */
(PID.TID 0000.0001)                 5.638391904771134E+08,      /* J = 53 */
(PID.TID 0000.0001)      . . .
(PID.TID 0000.0001)                 5.156672717944663E+08,      /* J = 73 */
(PID.TID 0000.0001)                 5.131524771180277E+08,      /* J = 74 */
(PID.TID 0000.0001)                 5.106279127581214E+08,      /* J = 75 */
(PID.TID 0000.0001)                 5.080936267787932E+08,      /* J = 76 */
(PID.TID 0000.0001)                 5.055496674292141E+08,      /* J = 77 */
(PID.TID 0000.0001)                 5.029960831426970E+08,      /* J = 78 */
(PID.TID 0000.0001)      . . .
(PID.TID 0000.0001)                 4.499793391102898E+08,      /* J = 98 */
(PID.TID 0000.0001)                 4.472351354605254E+08,      /* J = 99 */
(PID.TID 0000.0001)                 4.444824170984655E+08       /* J =100 */
(PID.TID 0000.0001)     ;
(PID.TID 0000.0001) rAs =  /* rAs(:,1,:,1) ( units: m^2 ) */
(PID.TID 0000.0001)   100 @  6.690273995779943E+08              /* I =  1:100 */
(PID.TID 0000.0001)     ;
(PID.TID 0000.0001) rAs =  /* rAs(1,:,1,:) ( units: m^2 ) */
(PID.TID 0000.0001)                 6.690273995779943E+08,      /* J =  1 */
(PID.TID 0000.0001)                 6.673356453338909E+08,      /* J =  2 */
(PID.TID 0000.0001)                 6.656311859810680E+08,      /* J =  3 */
(PID.TID 0000.0001)      . . .
(PID.TID 0000.0001)                 6.289256479335159E+08,      /* J = 23 */
(PID.TID 0000.0001)                 6.269622442326831E+08,      /* J = 24 */
(PID.TID 0000.0001)                 6.249869040744686E+08,      /* J = 25 */
(PID.TID 0000.0001)                 6.229996650664990E+08,      /* J = 26 */
(PID.TID 0000.0001)                 6.210005650429022E+08,      /* J = 27 */
(PID.TID 0000.0001)                 6.189896420637782E+08,      /* J = 28 */
(PID.TID 0000.0001)      . . .
(PID.TID 0000.0001)                 5.763489424124945E+08,      /* J = 48 */
(PID.TID 0000.0001)                 5.740989212629790E+08,      /* J = 49 */
(PID.TID 0000.0001)                 5.718379700975415E+08,      /* J = 50 */
(PID.TID 0000.0001)                 5.695661319614676E+08,      /* J = 51 */
(PID.TID 0000.0001)                 5.672834501072235E+08,      /* J = 52 */
(PID.TID 0000.0001)                 5.649899679938252E+08,      /* J = 53 */
(PID.TID 0000.0001)      . . .
(PID.TID 0000.0001)                 5.169209905322137E+08,      /* J = 73 */
(PID.TID 0000.0001)                 5.144110986634239E+08,      /* J = 74 */
(PID.TID 0000.0001)                 5.118914131488553E+08,      /* J = 75 */
(PID.TID 0000.0001)                 5.093619819596375E+08,      /* J = 76 */
(PID.TID 0000.0001)                 5.068228532525163E+08,      /* J = 77 */
(PID.TID 0000.0001)                 5.042740753688124E+08,      /* J = 78 */
(PID.TID 0000.0001)      . . .
(PID.TID 0000.0001)                 4.513482315849267E+08,      /* J = 98 */
(PID.TID 0000.0001)                 4.486083048936002E+08,      /* J = 99 */
(PID.TID 0000.0001)                 4.458598373468361E+08       /* J =100 */
(PID.TID 0000.0001)     ;
(PID.TID 0000.0001) globalArea = /* Integrated horizontal Area (m^2) */
(PID.TID 0000.0001)                 3.928595910370639E+12
(PID.TID 0000.0001)     ;
(PID.TID 0000.0001) // =======================================================
(PID.TID 0000.0001) // End of Model config. summary
(PID.TID 0000.0001) // =======================================================
(PID.TID 0000.0001) 
(PID.TID 0000.0001) == Packages configuration : Check & print summary ==
(PID.TID 0000.0001) 
(PID.TID 0000.0001) GAD_CHECK: #define ALLOW_GENERIC_ADVDIFF
(PID.TID 0000.0001) // =======================================================
(PID.TID 0000.0001) // Check Model config. (CONFIG_CHECK):
(PID.TID 0000.0001) // CONFIG_CHECK : Normal End
(PID.TID 0000.0001) // =======================================================
(PID.TID 0000.0001) 
(PID.TID 0000.0001) Start initial hydrostatic pressure computation
(PID.TID 0000.0001) Pressure is predetermined for buoyancyRelation OCEANIC
(PID.TID 0000.0001) 
(PID.TID 0000.0001)  write diagnostics summary to file ioUnit:      6
Iter.Nb:         0 ; Time(s):  0.0000000000000E+00
------------------------------------------------------------------------
2D/3D diagnostics: Number of lists:     1
------------------------------------------------------------------------
listId=    1 ; file name: cheapAML
 nFlds, nActive,       freq     &     phase        , nLev               
    6  |    6  |     14400.000000         0.000000 |   1
 levels:   1
 diag# | name   |   ipt  |  iMate | kLev|   count |   mate.C|           
   187 |CH_TAIR |      1 |      0 |   1 |       0 |
   189 |CH_QAIR |      2 |      0 |   1 |       0 |
   188 |CH_QNET |      3 |      0 |   1 |       0 |
   190 |CH_EmP  |      4 |      0 |   1 |       0 |
   192 |CH_Uwind|      5 |      6 |   1 |       0 |       0 |
   193 |CH_Vwind|      6 |      5 |   1 |       0 |       0 |
------------------------------------------------------------------------
Global & Regional Statistics diagnostics: Number of lists:     0
------------------------------------------------------------------------
(PID.TID 0000.0001) CHEAPAML_INIT_VARIA: Tair initialized using standard profile
(PID.TID 0000.0001) CHEAPAML_INIT_VARIA: Qair initialized using standard profile
(PID.TID 0000.0001) CHEAPAML_INIT_VARIA: Tracer initialized using standard profile
(PID.TID 0000.0001) // =======================================================
(PID.TID 0000.0001) // Model current state
(PID.TID 0000.0001) // =======================================================
(PID.TID 0000.0001) 
(PID.TID 0000.0001) // =======================================================
(PID.TID 0000.0001) // Begin MONITOR dynamic field statistics
(PID.TID 0000.0001) // =======================================================
(PID.TID 0000.0001) %MON time_tsnumber                =                     0
(PID.TID 0000.0001) %MON time_secondsf                =   0.0000000000000E+00
(PID.TID 0000.0001) %MON dynstat_eta_max              =   0.0000000000000E+00
(PID.TID 0000.0001) %MON dynstat_eta_min              =   0.0000000000000E+00
(PID.TID 0000.0001) %MON dynstat_eta_mean             =   0.0000000000000E+00
(PID.TID 0000.0001) %MON dynstat_eta_sd               =   0.0000000000000E+00
(PID.TID 0000.0001) %MON dynstat_eta_del2             =   0.0000000000000E+00
(PID.TID 0000.0001) %MON dynstat_uvel_max             =   0.0000000000000E+00
(PID.TID 0000.0001) %MON dynstat_uvel_min             =   0.0000000000000E+00
(PID.TID 0000.0001) %MON dynstat_uvel_mean            =   0.0000000000000E+00
(PID.TID 0000.0001) %MON dynstat_uvel_sd              =   0.0000000000000E+00
(PID.TID 0000.0001) %MON dynstat_uvel_del2            =   0.0000000000000E+00
(PID.TID 0000.0001) %MON dynstat_vvel_max             =   0.0000000000000E+00
(PID.TID 0000.0001) %MON dynstat_vvel_min             =   0.0000000000000E+00
(PID.TID 0000.0001) %MON dynstat_vvel_mean            =   0.0000000000000E+00
(PID.TID 0000.0001) %MON dynstat_vvel_sd              =   0.0000000000000E+00
(PID.TID 0000.0001) %MON dynstat_vvel_del2            =   0.0000000000000E+00
(PID.TID 0000.0001) %MON dynstat_wvel_max             =  -0.0000000000000E+00
(PID.TID 0000.0001) %MON dynstat_wvel_min             =  -0.0000000000000E+00
(PID.TID 0000.0001) %MON dynstat_wvel_mean            =   0.0000000000000E+00
(PID.TID 0000.0001) %MON dynstat_wvel_sd              =   0.0000000000000E+00
(PID.TID 0000.0001) %MON dynstat_wvel_del2            =   0.0000000000000E+00
(PID.TID 0000.0001) %MON dynstat_theta_max            =   2.0000000000000E+01
(PID.TID 0000.0001) %MON dynstat_theta_min            =   2.0000000000000E+01
(PID.TID 0000.0001) %MON dynstat_theta_mean           =   2.0000000000000E+01
(PID.TID 0000.0001) %MON dynstat_theta_sd             =   1.9184653865523E-13
(PID.TID 0000.0001) %MON dynstat_theta_del2           =   0.0000000000000E+00
(PID.TID 0000.0001) %MON dynstat_salt_max             =   3.5000000000000E+01
(PID.TID 0000.0001) %MON dynstat_salt_min             =   3.5000000000000E+01
(PID.TID 0000.0001) %MON dynstat_salt_mean            =   3.5000000000000E+01
(PID.TID 0000.0001) %MON dynstat_salt_sd              =   2.1316282072803E-14
(PID.TID 0000.0001) %MON dynstat_salt_del2            =   0.0000000000000E+00
(PID.TID 0000.0001) %MON forcing_qnet_max             =   0.0000000000000E+00
(PID.TID 0000.0001) %MON forcing_qnet_min             =   0.0000000000000E+00
(PID.TID 0000.0001) %MON forcing_qnet_mean            =   0.0000000000000E+00
(PID.TID 0000.0001) %MON forcing_qnet_sd              =   0.0000000000000E+00
(PID.TID 0000.0001) %MON forcing_qnet_del2            =   0.0000000000000E+00
(PID.TID 0000.0001) %MON forcing_qsw_max              =   0.0000000000000E+00
(PID.TID 0000.0001) %MON forcing_qsw_min              =   0.0000000000000E+00
(PID.TID 0000.0001) %MON forcing_qsw_mean             =   0.0000000000000E+00
(PID.TID 0000.0001) %MON forcing_qsw_sd               =   0.0000000000000E+00
(PID.TID 0000.0001) %MON forcing_qsw_del2             =   0.0000000000000E+00
(PID.TID 0000.0001) %MON forcing_empmr_max            =   0.0000000000000E+00
(PID.TID 0000.0001) %MON forcing_empmr_min            =   0.0000000000000E+00
(PID.TID 0000.0001) %MON forcing_empmr_mean           =   0.0000000000000E+00
(PID.TID 0000.0001) %MON forcing_empmr_sd             =   0.0000000000000E+00
(PID.TID 0000.0001) %MON forcing_empmr_del2           =   0.0000000000000E+00
(PID.TID 0000.0001) %MON forcing_fu_max               =   0.0000000000000E+00
(PID.TID 0000.0001) %MON forcing_fu_min               =   0.0000000000000E+00
(PID.TID 0000.0001) %MON forcing_fu_mean              =   0.0000000000000E+00
(PID.TID 0000.0001) %MON forcing_fu_sd                =   0.0000000000000E+00
(PID.TID 0000.0001) %MON forcing_fu_del2              =   0.0000000000000E+00
(PID.TID 0000.0001) %MON forcing_fv_max               =   0.0000000000000E+00
(PID.TID 0000.0001) %MON forcing_fv_min               =   0.0000000000000E+00
(PID.TID 0000.0001) %MON forcing_fv_mean              =   0.0000000000000E+00
(PID.TID 0000.0001) %MON forcing_fv_sd                =   0.0000000000000E+00
(PID.TID 0000.0001) %MON forcing_fv_del2              =   0.0000000000000E+00
(PID.TID 0000.0001) %MON trAdv_CFL_u_max              =   0.0000000000000E+00
(PID.TID 0000.0001) %MON trAdv_CFL_v_max              =   0.0000000000000E+00
(PID.TID 0000.0001) %MON trAdv_CFL_w_max              =   0.0000000000000E+00
(PID.TID 0000.0001) %MON advcfl_uvel_max              =   0.0000000000000E+00
(PID.TID 0000.0001) %MON advcfl_vvel_max              =   0.0000000000000E+00
(PID.TID 0000.0001) %MON advcfl_wvel_max              =   0.0000000000000E+00
(PID.TID 0000.0001) %MON advcfl_W_hf_max              =   0.0000000000000E+00
(PID.TID 0000.0001) %MON pe_b_mean                    =   0.0000000000000E+00
(PID.TID 0000.0001) %MON ke_max                       =   0.0000000000000E+00
(PID.TID 0000.0001) %MON ke_mean                      =   0.0000000000000E+00
(PID.TID 0000.0001) %MON ke_vol                       =   3.9285959103706E+15
(PID.TID 0000.0001) %MON vort_r_min                   =   0.0000000000000E+00
(PID.TID 0000.0001) %MON vort_r_max                   =   0.0000000000000E+00
(PID.TID 0000.0001) %MON vort_a_mean                  =   9.0315070673762E-05
(PID.TID 0000.0001) %MON vort_a_sd                    =   1.0358287086367E-05
(PID.TID 0000.0001) %MON vort_p_mean                  =   9.3807280711835E-05
(PID.TID 0000.0001) %MON vort_p_sd                    =   3.1543568116637E-05
(PID.TID 0000.0001) %MON surfExpan_theta_mean         =   0.0000000000000E+00
(PID.TID 0000.0001) %MON surfExpan_salt_mean          =   0.0000000000000E+00
(PID.TID 0000.0001) // =======================================================
(PID.TID 0000.0001) // End MONITOR dynamic field statistics
(PID.TID 0000.0001) // =======================================================
(PID.TID 0000.0001) SOLVE_FOR_PRESSURE: putPmEinXvector =    F
 cg2d: Sum(rhs),rhsMax =  -1.08801856413265E-14  5.96337708430248E-04
 cg2d: Sum(rhs),rhsMax =  -1.06825424533996E-07  7.55662614836599E-04
 cg2d: Sum(rhs),rhsMax =   2.30716579729950E-08  8.53564248094320E-04
(PID.TID 0000.0001)      cg2d_init_res =   3.56808976961537E+00
(PID.TID 0000.0001)      cg2d_iters(min,last) =      -1      68
(PID.TID 0000.0001)      cg2d_last_res =   8.19242584517348E-08
(PID.TID 0000.0001) // =======================================================
(PID.TID 0000.0001) // Begin MONITOR dynamic field statistics
(PID.TID 0000.0001) // =======================================================
(PID.TID 0000.0001) %MON time_tsnumber                =                     3
(PID.TID 0000.0001) %MON time_secondsf                =   3.6000000000000E+03
(PID.TID 0000.0001) %MON dynstat_eta_max              =   9.9839747236755E-04
(PID.TID 0000.0001) %MON dynstat_eta_min              =  -1.0799362471616E-03
(PID.TID 0000.0001) %MON dynstat_eta_mean             =  -1.5270757773581E-13
(PID.TID 0000.0001) %MON dynstat_eta_sd               =   2.4601578457450E-04
(PID.TID 0000.0001) %MON dynstat_eta_del2             =   6.4187447235139E-08
(PID.TID 0000.0001) %MON dynstat_uvel_max             =   1.2313670213609E-04
(PID.TID 0000.0001) %MON dynstat_uvel_min             =  -1.1645771756084E-04
(PID.TID 0000.0001) %MON dynstat_uvel_mean            =   9.8074093664837E-06
(PID.TID 0000.0001) %MON dynstat_uvel_sd              =   6.2333441447574E-05
(PID.TID 0000.0001) %MON dynstat_uvel_del2            =   1.4927225778062E-08
(PID.TID 0000.0001) %MON dynstat_vvel_max             =   6.3194639857429E-05
(PID.TID 0000.0001) %MON dynstat_vvel_min             =  -4.9124878674445E-05
(PID.TID 0000.0001) %MON dynstat_vvel_mean            =  -1.3634184972036E-06
(PID.TID 0000.0001) %MON dynstat_vvel_sd              =   1.3053383696295E-05
(PID.TID 0000.0001) %MON dynstat_vvel_del2            =   7.5708347475334E-09
(PID.TID 0000.0001) %MON dynstat_wvel_max             =   2.4222535895529E-07
(PID.TID 0000.0001) %MON dynstat_wvel_min             =  -3.2019257069615E-07
(PID.TID 0000.0001) %MON dynstat_wvel_mean            =   2.5010088556719E-23
(PID.TID 0000.0001) %MON dynstat_wvel_sd              =   8.8547613450170E-08
(PID.TID 0000.0001) %MON dynstat_wvel_del2            =   2.9026020838123E-11
(PID.TID 0000.0001) %MON dynstat_theta_max            =   2.0000208316184E+01
(PID.TID 0000.0001) %MON dynstat_theta_min            =   1.9999912731661E+01
(PID.TID 0000.0001) %MON dynstat_theta_mean           =   2.0000104088294E+01
(PID.TID 0000.0001) %MON dynstat_theta_sd             =   2.6639142532428E-05
(PID.TID 0000.0001) %MON dynstat_theta_del2           =   3.8256059510238E-08
(PID.TID 0000.0001) %MON dynstat_salt_max             =   3.5000007144381E+01
(PID.TID 0000.0001) %MON dynstat_salt_min             =   3.4998331467810E+01
(PID.TID 0000.0001) %MON dynstat_salt_mean            =   3.4999975666166E+01
(PID.TID 0000.0001) %MON dynstat_salt_sd              =   1.5813998195968E-04
(PID.TID 0000.0001) %MON dynstat_salt_del2            =   2.3840923855670E-07
(PID.TID 0000.0001) %MON forcing_qnet_max             =   1.5682622778634E+02
(PID.TID 0000.0001) %MON forcing_qnet_min             =  -2.3066124255803E+02
(PID.TID 0000.0001) %MON forcing_qnet_mean            =  -1.1583401047863E+02
(PID.TID 0000.0001) %MON forcing_qnet_sd              =   3.0898373579745E+01
(PID.TID 0000.0001) %MON forcing_qnet_del2            =   4.3777640523308E-02
(PID.TID 0000.0001) %MON forcing_qsw_max              =  -1.8787878787879E+02
(PID.TID 0000.0001) %MON forcing_qsw_min              =  -2.2462121212121E+02
(PID.TID 0000.0001) %MON forcing_qsw_mean             =  -2.1233709653010E+02
(PID.TID 0000.0001) %MON forcing_qsw_sd               =   7.9326552219826E+00
(PID.TID 0000.0001) %MON forcing_qsw_del2             =   7.5690028615512E-01
(PID.TID 0000.0001) %MON forcing_empmr_max            =   6.3953669638162E-05
(PID.TID 0000.0001) %MON forcing_empmr_min            =  -1.3233522876234E-02
(PID.TID 0000.0001) %MON forcing_empmr_mean           =  -1.9306101098570E-04
(PID.TID 0000.0001) %MON forcing_empmr_sd             =   1.2541568941216E-03
(PID.TID 0000.0001) %MON forcing_empmr_del2           =   1.9110580105613E-06
(PID.TID 0000.0001) %MON forcing_fu_max               =   3.6333880826972E-02
(PID.TID 0000.0001) %MON forcing_fu_min               =  -4.1265024924712E-02
(PID.TID 0000.0001) %MON forcing_fu_mean              =   3.8857719569334E-03
(PID.TID 0000.0001) %MON forcing_fu_sd                =   2.0841144104984E-02
(PID.TID 0000.0001) %MON forcing_fu_del2              =   4.6338508586011E-06
(PID.TID 0000.0001) %MON forcing_fv_max               =   1.4118728663312E-07
(PID.TID 0000.0001) %MON forcing_fv_min               =  -1.6154626273513E-07
(PID.TID 0000.0001) %MON forcing_fv_mean              =   4.0892545108717E-09
(PID.TID 0000.0001) %MON forcing_fv_sd                =   2.9480685272377E-08
(PID.TID 0000.0001) %MON forcing_fv_del2              =   2.5011776586861E-11
(PID.TID 0000.0001) %MON trAdv_CFL_u_max              =   7.2252275357195E-06
(PID.TID 0000.0001) %MON trAdv_CFL_v_max              =   2.7224480774825E-06
(PID.TID 0000.0001) %MON trAdv_CFL_w_max              =   2.9067043074635E-07
(PID.TID 0000.0001) %MON advcfl_uvel_max              =   7.2252218041317E-06
(PID.TID 0000.0001) %MON advcfl_vvel_max              =   2.7283788898059E-06
(PID.TID 0000.0001) %MON advcfl_wvel_max              =   7.6846216967076E-07
(PID.TID 0000.0001) %MON advcfl_W_hf_max              =   0.0000000000000E+00
(PID.TID 0000.0001) %MON pe_b_mean                    =   2.9686907350435E-10
(PID.TID 0000.0001) %MON ke_max                       =   7.6696775840801E-09
(PID.TID 0000.0001) %MON ke_mean                      =   2.0475951298423E-09
(PID.TID 0000.0001) %MON ke_vol                       =   3.9285959103706E+15
(PID.TID 0000.0001) %MON vort_r_min                   =  -2.4254176241844E-09
(PID.TID 0000.0001) %MON vort_r_max                   =   7.2377300768382E-09
(PID.TID 0000.0001) %MON vort_a_mean                  =   9.0315070673762E-05
(PID.TID 0000.0001) %MON vort_a_sd                    =   1.0358298365248E-05
(PID.TID 0000.0001) %MON vort_p_mean                  =   9.3807280711835E-05
(PID.TID 0000.0001) %MON vort_p_sd                    =   3.1544247246679E-05
(PID.TID 0000.0001) %MON surfExpan_theta_mean         =   3.8989452848496E-13
(PID.TID 0000.0001) %MON surfExpan_salt_mean          =  -2.6462223271433E-12
(PID.TID 0000.0001) // =======================================================
(PID.TID 0000.0001) // End MONITOR dynamic field statistics
(PID.TID 0000.0001) // =======================================================
 cg2d: Sum(rhs),rhsMax =   2.57385955437783E-07  9.42822485479770E-04
 cg2d: Sum(rhs),rhsMax =   5.53726500207574E-07  1.21824536238482E-03
 cg2d: Sum(rhs),rhsMax =   9.05343404689063E-07  1.51262799794519E-03
(PID.TID 0000.0001)      cg2d_init_res =   2.01619454702927E+00
(PID.TID 0000.0001)      cg2d_iters(min,last) =      -1      66
(PID.TID 0000.0001)      cg2d_last_res =   7.67376907786797E-08
(PID.TID 0000.0001) // =======================================================
(PID.TID 0000.0001) // Begin MONITOR dynamic field statistics
(PID.TID 0000.0001) // =======================================================
(PID.TID 0000.0001) %MON time_tsnumber                =                     6
(PID.TID 0000.0001) %MON time_secondsf                =   7.2000000000000E+03
(PID.TID 0000.0001) %MON dynstat_eta_max              =   1.5050768206619E-03
(PID.TID 0000.0001) %MON dynstat_eta_min              =  -2.1141197446621E-03
(PID.TID 0000.0001) %MON dynstat_eta_mean             =  -1.3173447547514E-12
(PID.TID 0000.0001) %MON dynstat_eta_sd               =   5.6797293828224E-04
(PID.TID 0000.0001) %MON dynstat_eta_del2             =   1.5042568614580E-07
(PID.TID 0000.0001) %MON dynstat_uvel_max             =   2.2643685979571E-04
(PID.TID 0000.0001) %MON dynstat_uvel_min             =  -2.2564080632342E-04
(PID.TID 0000.0001) %MON dynstat_uvel_mean            =   1.2919226265614E-05
(PID.TID 0000.0001) %MON dynstat_uvel_sd              =   1.0563682364262E-04
(PID.TID 0000.0001) %MON dynstat_uvel_del2            =   3.3630960775402E-08
(PID.TID 0000.0001) %MON dynstat_vvel_max             =   1.4811784063051E-04
(PID.TID 0000.0001) %MON dynstat_vvel_min             =  -1.4130266701841E-04
(PID.TID 0000.0001) %MON dynstat_vvel_mean            =  -2.9903632397399E-06
(PID.TID 0000.0001) %MON dynstat_vvel_sd              =   4.3275830839036E-05
(PID.TID 0000.0001) %MON dynstat_vvel_del2            =   1.2964211599995E-08
(PID.TID 0000.0001) %MON dynstat_wvel_max             =   2.1746942315783E-07
(PID.TID 0000.0001) %MON dynstat_wvel_min             =  -2.8725057941645E-07
(PID.TID 0000.0001) %MON dynstat_wvel_mean            =   4.5041865647172E-24
(PID.TID 0000.0001) %MON dynstat_wvel_sd              =   9.7525786266146E-08
(PID.TID 0000.0001) %MON dynstat_wvel_del2            =   2.6548269487607E-11
(PID.TID 0000.0001) %MON dynstat_theta_max            =   2.0000415512717E+01
(PID.TID 0000.0001) %MON dynstat_theta_min            =   1.9999737341561E+01
(PID.TID 0000.0001) %MON dynstat_theta_mean           =   2.0000208884706E+01
(PID.TID 0000.0001) %MON dynstat_theta_sd             =   5.6050600811031E-05
(PID.TID 0000.0001) %MON dynstat_theta_del2           =   6.5056795670871E-08
(PID.TID 0000.0001) %MON dynstat_salt_max             =   3.5000016313839E+01
(PID.TID 0000.0001) %MON dynstat_salt_min             =   3.4996667592201E+01
(PID.TID 0000.0001) %MON dynstat_salt_mean            =   3.4999951412478E+01
(PID.TID 0000.0001) %MON dynstat_salt_sd              =   3.1571965657625E-04
(PID.TID 0000.0001) %MON dynstat_salt_del2            =   4.7045487752411E-07
(PID.TID 0000.0001) %MON forcing_qnet_max             =   2.0349940533966E+02
(PID.TID 0000.0001) %MON forcing_qnet_min             =  -2.2941429442374E+02
(PID.TID 0000.0001) %MON forcing_qnet_mean            =  -1.1638358395965E+02
(PID.TID 0000.0001) %MON forcing_qnet_sd              =   3.4550432238191E+01
(PID.TID 0000.0001) %MON forcing_qnet_del2            =   5.0554768432666E-02
(PID.TID 0000.0001) %MON forcing_qsw_max              =  -1.8787878787879E+02
(PID.TID 0000.0001) %MON forcing_qsw_min              =  -2.2462121212121E+02
(PID.TID 0000.0001) %MON forcing_qsw_mean             =  -2.1233709653010E+02
(PID.TID 0000.0001) %MON forcing_qsw_sd               =   7.9326552219826E+00
(PID.TID 0000.0001) %MON forcing_qsw_del2             =   7.5690028615512E-01
(PID.TID 0000.0001) %MON forcing_empmr_max            =   7.2957452623296E-05
(PID.TID 0000.0001) %MON forcing_empmr_min            =  -1.3198916995823E-02
(PID.TID 0000.0001) %MON forcing_empmr_mean           =  -1.9235542415567E-04
(PID.TID 0000.0001) %MON forcing_empmr_sd             =   1.2503798924391E-03
(PID.TID 0000.0001) %MON forcing_empmr_del2           =   1.9457048100443E-06
(PID.TID 0000.0001) %MON forcing_fu_max               =   3.7118392902965E-02
(PID.TID 0000.0001) %MON forcing_fu_min               =  -4.3538928647518E-02
(PID.TID 0000.0001) %MON forcing_fu_mean              =   4.1337429076546E-03
(PID.TID 0000.0001) %MON forcing_fu_sd                =   2.0545161382006E-02
(PID.TID 0000.0001) %MON forcing_fu_del2              =   6.7149540502724E-06
(PID.TID 0000.0001) %MON forcing_fv_max               =   5.5648569427848E-07
(PID.TID 0000.0001) %MON forcing_fv_min               =  -6.1305881528373E-07
(PID.TID 0000.0001) %MON forcing_fv_mean              =   1.9781276861291E-08
(PID.TID 0000.0001) %MON forcing_fv_sd                =   1.3906370981126E-07
(PID.TID 0000.0001) %MON forcing_fv_del2              =   8.6343523157232E-11
(PID.TID 0000.0001) %MON trAdv_CFL_u_max              =   1.3286516579676E-05
(PID.TID 0000.0001) %MON trAdv_CFL_v_max              =   6.3834115125626E-06
(PID.TID 0000.0001) %MON trAdv_CFL_w_max              =   2.6096330778940E-07
(PID.TID 0000.0001) %MON advcfl_uvel_max              =   1.3286506039823E-05
(PID.TID 0000.0001) %MON advcfl_vvel_max              =   6.3948713133208E-06
(PID.TID 0000.0001) %MON advcfl_wvel_max              =   6.8940139059949E-07
(PID.TID 0000.0001) %MON advcfl_W_hf_max              =   0.0000000000000E+00
(PID.TID 0000.0001) %MON pe_b_mean                    =   1.5823199335358E-09
(PID.TID 0000.0001) %MON ke_max                       =   2.6235133833577E-08
(PID.TID 0000.0001) %MON ke_mean                      =   6.5100397557529E-09
(PID.TID 0000.0001) %MON ke_vol                       =   3.9285959103706E+15
(PID.TID 0000.0001) %MON vort_r_min                   =  -6.4820287876854E-09
(PID.TID 0000.0001) %MON vort_r_max                   =   1.1179076035336E-08
(PID.TID 0000.0001) %MON vort_a_mean                  =   9.0315070673762E-05
(PID.TID 0000.0001) %MON vort_a_sd                    =   1.0358300540911E-05
(PID.TID 0000.0001) %MON vort_p_mean                  =   9.3807280711835E-05
(PID.TID 0000.0001) %MON vort_p_sd                    =   3.1544824260168E-05
(PID.TID 0000.0001) %MON surfExpan_theta_mean         =   1.5545860843511E-12
(PID.TID 0000.0001) %MON surfExpan_salt_mean          =  -7.4783856588879E-12
(PID.TID 0000.0001) // =======================================================
(PID.TID 0000.0001) // End MONITOR dynamic field statistics
(PID.TID 0000.0001) // =======================================================
 cg2d: Sum(rhs),rhsMax =   1.15748884699229E-06  1.80857607253170E-03
 cg2d: Sum(rhs),rhsMax =   1.44446027050549E-06  2.10932657707000E-03
 cg2d: Sum(rhs),rhsMax =   1.76551632691258E-06  2.41678497552291E-03
(PID.TID 0000.0001)      cg2d_init_res =   1.04159999220837E+00
(PID.TID 0000.0001)      cg2d_iters(min,last) =      -1      64
(PID.TID 0000.0001)      cg2d_last_res =   8.83515207264437E-08
(PID.TID 0000.0001) // =======================================================
(PID.TID 0000.0001) // Begin MONITOR dynamic field statistics
(PID.TID 0000.0001) // =======================================================
(PID.TID 0000.0001) %MON time_tsnumber                =                     9
(PID.TID 0000.0001) %MON time_secondsf                =   1.0800000000000E+04
(PID.TID 0000.0001) %MON dynstat_eta_max              =   1.8441735803083E-03
(PID.TID 0000.0001) %MON dynstat_eta_min              =  -2.9302205346132E-03
(PID.TID 0000.0001) %MON dynstat_eta_mean             =  -3.3358937082907E-12
(PID.TID 0000.0001) %MON dynstat_eta_sd               =   8.1131725644893E-04
(PID.TID 0000.0001) %MON dynstat_eta_del2             =   2.3452237943171E-07
(PID.TID 0000.0001) %MON dynstat_uvel_max             =   2.9272479625290E-04
(PID.TID 0000.0001) %MON dynstat_uvel_min             =  -3.1986146645956E-04
(PID.TID 0000.0001) %MON dynstat_uvel_mean            =   1.1305458385441E-05
(PID.TID 0000.0001) %MON dynstat_uvel_sd              =   1.3743990484434E-04
(PID.TID 0000.0001) %MON dynstat_uvel_del2            =   5.9159070890355E-08
(PID.TID 0000.0001) %MON dynstat_vvel_max             =   2.8291318425326E-04
(PID.TID 0000.0001) %MON dynstat_vvel_min             =  -2.5157092484776E-04
(PID.TID 0000.0001) %MON dynstat_vvel_mean            =  -2.1246797716895E-06
(PID.TID 0000.0001) %MON dynstat_vvel_sd              =   8.4272947649129E-05
(PID.TID 0000.0001) %MON dynstat_vvel_del2            =   1.5211397536163E-08
(PID.TID 0000.0001) %MON dynstat_wvel_max             =   1.9594645227785E-07
(PID.TID 0000.0001) %MON dynstat_wvel_min             =  -2.0201347499383E-07
(PID.TID 0000.0001) %MON dynstat_wvel_mean            =  -1.0430747834082E-23
(PID.TID 0000.0001) %MON dynstat_wvel_sd              =   6.8394670991204E-08
(PID.TID 0000.0001) %MON dynstat_wvel_del2            =   2.7976689563778E-11
(PID.TID 0000.0001) %MON dynstat_theta_max            =   2.0000621561025E+01
(PID.TID 0000.0001) %MON dynstat_theta_min            =   1.9999550570331E+01
(PID.TID 0000.0001) %MON dynstat_theta_mean           =   2.0000313917378E+01
(PID.TID 0000.0001) %MON dynstat_theta_sd             =   8.8067778136175E-05
(PID.TID 0000.0001) %MON dynstat_theta_del2           =   1.0391386278810E-07
(PID.TID 0000.0001) %MON dynstat_salt_max             =   3.5000025615633E+01
(PID.TID 0000.0001) %MON dynstat_salt_min             =   3.4995008846222E+01
(PID.TID 0000.0001) %MON dynstat_salt_mean            =   3.4999927279580E+01
(PID.TID 0000.0001) %MON dynstat_salt_sd              =   4.7273964928465E-04
(PID.TID 0000.0001) %MON dynstat_salt_del2            =   6.9332962282318E-07
(PID.TID 0000.0001) %MON forcing_qnet_max             =   2.0769776390884E+02
(PID.TID 0000.0001) %MON forcing_qnet_min             =  -2.2845204952104E+02
(PID.TID 0000.0001) %MON forcing_qnet_mean            =  -1.1653474342611E+02
(PID.TID 0000.0001) %MON forcing_qnet_sd              =   3.7429297754351E+01
(PID.TID 0000.0001) %MON forcing_qnet_del2            =   6.6012119222026E-02
(PID.TID 0000.0001) %MON forcing_qsw_max              =  -1.8787878787879E+02
(PID.TID 0000.0001) %MON forcing_qsw_min              =  -2.2462121212121E+02
(PID.TID 0000.0001) %MON forcing_qsw_mean             =  -2.1233709653010E+02
(PID.TID 0000.0001) %MON forcing_qsw_sd               =   7.9326552219826E+00
(PID.TID 0000.0001) %MON forcing_qsw_del2             =   7.5690028615512E-01
(PID.TID 0000.0001) %MON forcing_empmr_max            =   7.3773603066244E-05
(PID.TID 0000.0001) %MON forcing_empmr_min            =  -1.3158746455230E-02
(PID.TID 0000.0001) %MON forcing_empmr_mean           =  -1.9121329439232E-04
(PID.TID 0000.0001) %MON forcing_empmr_sd             =   1.2469310856339E-03
(PID.TID 0000.0001) %MON forcing_empmr_del2           =   2.0709928840290E-06
(PID.TID 0000.0001) %MON forcing_fu_max               =   3.7367278692299E-02
(PID.TID 0000.0001) %MON forcing_fu_min               =  -4.4050413442347E-02
(PID.TID 0000.0001) %MON forcing_fu_mean              =   4.3009503939036E-03
(PID.TID 0000.0001) %MON forcing_fu_sd                =   2.0379008982785E-02
(PID.TID 0000.0001) %MON forcing_fu_del2              =   9.2110791619452E-06
(PID.TID 0000.0001) %MON forcing_fv_max               =   1.0529729301518E-06
(PID.TID 0000.0001) %MON forcing_fv_min               =  -1.3216050501529E-06
(PID.TID 0000.0001) %MON forcing_fv_mean              =   2.0761860895978E-08
(PID.TID 0000.0001) %MON forcing_fv_sd                =   2.8404987616434E-07
(PID.TID 0000.0001) %MON forcing_fv_del2              =   2.0948505122878E-10
(PID.TID 0000.0001) %MON trAdv_CFL_u_max              =   1.7176058978230E-05
(PID.TID 0000.0001) %MON trAdv_CFL_v_max              =   1.2192665446177E-05
(PID.TID 0000.0001) %MON trAdv_CFL_w_max              =   2.3513574273342E-07
(PID.TID 0000.0001) %MON advcfl_uvel_max              =   1.7176045352903E-05
(PID.TID 0000.0001) %MON advcfl_vvel_max              =   1.2214554292988E-05
(PID.TID 0000.0001) %MON advcfl_wvel_max              =   4.8483233998518E-07
(PID.TID 0000.0001) %MON advcfl_W_hf_max              =   0.0000000000000E+00
(PID.TID 0000.0001) %MON pe_b_mean                    =   3.2286460624510E-09
(PID.TID 0000.0001) %MON ke_max                       =   5.1152996229759E-08
(PID.TID 0000.0001) %MON ke_mean                      =   1.2875023110596E-08
(PID.TID 0000.0001) %MON ke_vol                       =   3.9285959103706E+15
(PID.TID 0000.0001) %MON vort_r_min                   =  -1.0187755091874E-08
(PID.TID 0000.0001) %MON vort_r_max                   =   1.3191393247285E-08
(PID.TID 0000.0001) %MON vort_a_mean                  =   9.0315070673762E-05
(PID.TID 0000.0001) %MON vort_a_sd                    =   1.0358295682412E-05
(PID.TID 0000.0001) %MON vort_p_mean                  =   9.3807280711835E-05
(PID.TID 0000.0001) %MON vort_p_sd                    =   3.1545362854329E-05
(PID.TID 0000.0001) %MON surfExpan_theta_mean         =   1.6643884219224E-12
(PID.TID 0000.0001) %MON surfExpan_salt_mean          =  -9.5786093355018E-12
(PID.TID 0000.0001) // =======================================================
(PID.TID 0000.0001) // End MONITOR dynamic field statistics
(PID.TID 0000.0001) // =======================================================
 cg2d: Sum(rhs),rhsMax =   1.94064468139743E-06  2.73162064984677E-03
 cg2d: Sum(rhs),rhsMax =   2.11715134845747E-06  3.05356827083594E-03
 cg2d: Sum(rhs),rhsMax =   2.18890172476449E-06  3.38168847318941E-03
(PID.TID 0000.0001)      cg2d_init_res =   7.04628449527544E-01
(PID.TID 0000.0001)      cg2d_iters(min,last) =      -1      62
(PID.TID 0000.0001)      cg2d_last_res =   9.90739481701815E-08
(PID.TID 0000.0001) // =======================================================
(PID.TID 0000.0001) // Begin MONITOR dynamic field statistics
(PID.TID 0000.0001) // =======================================================
(PID.TID 0000.0001) %MON time_tsnumber                =                    12
(PID.TID 0000.0001) %MON time_secondsf                =   1.4400000000000E+04
(PID.TID 0000.0001) %MON dynstat_eta_max              =   2.4727820088629E-03
(PID.TID 0000.0001) %MON dynstat_eta_min              =  -3.4350370089414E-03
(PID.TID 0000.0001) %MON dynstat_eta_mean             =  -5.4588460223358E-12
(PID.TID 0000.0001) %MON dynstat_eta_sd               =   9.1267938154101E-04
(PID.TID 0000.0001) %MON dynstat_eta_del2             =   3.1654305299944E-07
(PID.TID 0000.0001) %MON dynstat_uvel_max             =   3.4910546484572E-04
(PID.TID 0000.0001) %MON dynstat_uvel_min             =  -4.0426209721549E-04
(PID.TID 0000.0001) %MON dynstat_uvel_mean            =   6.4550366797494E-06
(PID.TID 0000.0001) %MON dynstat_uvel_sd              =   1.6743526761254E-04
(PID.TID 0000.0001) %MON dynstat_uvel_del2            =   9.3604215513932E-08
(PID.TID 0000.0001) %MON dynstat_vvel_max             =   4.3140581911402E-04
(PID.TID 0000.0001) %MON dynstat_vvel_min             =  -3.6453907299760E-04
(PID.TID 0000.0001) %MON dynstat_vvel_mean            =   4.0009037693135E-07
(PID.TID 0000.0001) %MON dynstat_vvel_sd              =   1.2859737480502E-04
(PID.TID 0000.0001) %MON dynstat_vvel_del2            =   1.8306054041593E-08
(PID.TID 0000.0001) %MON dynstat_wvel_max             =   1.6939431922177E-07
(PID.TID 0000.0001) %MON dynstat_wvel_min             =  -1.3954848763034E-07
(PID.TID 0000.0001) %MON dynstat_wvel_mean            =  -9.0083731294343E-24
(PID.TID 0000.0001) %MON dynstat_wvel_sd              =   5.3406837318878E-08
(PID.TID 0000.0001) %MON dynstat_wvel_del2            =   3.0272258404453E-11
(PID.TID 0000.0001) %MON dynstat_theta_max            =   2.0000826402983E+01
(PID.TID 0000.0001) %MON dynstat_theta_min            =   1.9999363605899E+01
(PID.TID 0000.0001) %MON dynstat_theta_mean           =   2.0000418956840E+01
(PID.TID 0000.0001) %MON dynstat_theta_sd             =   1.2216371041609E-04
(PID.TID 0000.0001) %MON dynstat_theta_del2           =   1.5920871200468E-07
(PID.TID 0000.0001) %MON dynstat_salt_max             =   3.5000034904111E+01
(PID.TID 0000.0001) %MON dynstat_salt_min             =   3.4993356002596E+01
(PID.TID 0000.0001) %MON dynstat_salt_mean            =   3.4999903283175E+01
(PID.TID 0000.0001) %MON dynstat_salt_sd              =   6.2909725388616E-04
(PID.TID 0000.0001) %MON dynstat_salt_del2            =   9.1127269968253E-07
(PID.TID 0000.0001) %MON forcing_qnet_max             =   2.0715832160736E+02
(PID.TID 0000.0001) %MON forcing_qnet_min             =  -2.2886515183959E+02
(PID.TID 0000.0001) %MON forcing_qnet_mean            =  -1.1648514685892E+02
(PID.TID 0000.0001) %MON forcing_qnet_sd              =   3.9639219710475E+01
(PID.TID 0000.0001) %MON forcing_qnet_del2            =   7.6475038713886E-02
(PID.TID 0000.0001) %MON forcing_qsw_max              =  -1.8787878787879E+02
(PID.TID 0000.0001) %MON forcing_qsw_min              =  -2.2462121212121E+02
(PID.TID 0000.0001) %MON forcing_qsw_mean             =  -2.1233709653010E+02
(PID.TID 0000.0001) %MON forcing_qsw_sd               =   7.9326552219826E+00
(PID.TID 0000.0001) %MON forcing_qsw_del2             =   7.5690028615512E-01
(PID.TID 0000.0001) %MON forcing_empmr_max            =   7.3680478510945E-05
(PID.TID 0000.0001) %MON forcing_empmr_min            =  -1.3112371742517E-02
(PID.TID 0000.0001) %MON forcing_empmr_mean           =  -1.9039525600594E-04
(PID.TID 0000.0001) %MON forcing_empmr_sd             =   1.2429024382972E-03
(PID.TID 0000.0001) %MON forcing_empmr_del2           =   2.0779229378332E-06
(PID.TID 0000.0001) %MON forcing_fu_max               =   3.7426329181132E-02
(PID.TID 0000.0001) %MON forcing_fu_min               =  -4.4130327934347E-02
(PID.TID 0000.0001) %MON forcing_fu_mean              =   4.4231623342939E-03
(PID.TID 0000.0001) %MON forcing_fu_sd                =   2.0277741370530E-02
(PID.TID 0000.0001) %MON forcing_fu_del2              =   1.1383154303785E-05
(PID.TID 0000.0001) %MON forcing_fv_max               =   1.6003711156546E-06
(PID.TID 0000.0001) %MON forcing_fv_min               =  -2.1557475981705E-06
(PID.TID 0000.0001) %MON forcing_fv_mean              =   1.3376874953952E-08
(PID.TID 0000.0001) %MON forcing_fv_sd                =   4.5495032894649E-07
(PID.TID 0000.0001) %MON forcing_fv_del2              =   3.4590236927192E-10
(PID.TID 0000.0001) %MON trAdv_CFL_u_max              =   2.0402539859984E-05
(PID.TID 0000.0001) %MON trAdv_CFL_v_max              =   1.8592229407317E-05
(PID.TID 0000.0001) %MON trAdv_CFL_w_max              =   2.0327318306613E-07
(PID.TID 0000.0001) %MON advcfl_uvel_max              =   2.0402523675173E-05
(PID.TID 0000.0001) %MON advcfl_vvel_max              =   1.8625607052522E-05
(PID.TID 0000.0001) %MON advcfl_wvel_max              =   4.0654636613226E-07
(PID.TID 0000.0001) %MON advcfl_W_hf_max              =   0.0000000000000E+00
(PID.TID 0000.0001) %MON pe_b_mean                    =   4.0857848203688E-09
(PID.TID 0000.0001) %MON ke_max                       =   9.3037159931790E-08
(PID.TID 0000.0001) %MON ke_mean                      =   2.1985803195550E-08
(PID.TID 0000.0001) %MON ke_vol                       =   3.9285959103706E+15
(PID.TID 0000.0001) %MON vort_r_min                   =  -1.2705716006116E-08
(PID.TID 0000.0001) %MON vort_r_max                   =   2.0115159440592E-08
(PID.TID 0000.0001) %MON vort_a_mean                  =   9.0315070673762E-05
(PID.TID 0000.0001) %MON vort_a_sd                    =   1.0358285543456E-05
(PID.TID 0000.0001) %MON vort_p_mean                  =   9.3807280711835E-05
(PID.TID 0000.0001) %MON vort_p_sd                    =   3.1545891453494E-05
(PID.TID 0000.0001) %MON surfExpan_theta_mean         =   8.4594385811251E-13
(PID.TID 0000.0001) %MON surfExpan_salt_mean          =  -1.0254125595373E-11
(PID.TID 0000.0001) // =======================================================
(PID.TID 0000.0001) // End MONITOR dynamic field statistics
(PID.TID 0000.0001) // =======================================================
 Computing Diagnostic #    187  CH_TAIR      Counter:      12   Parms: SM      L1      
 Computing Diagnostic #    189  CH_QAIR      Counter:      12   Parms: SM      L1      
 Computing Diagnostic #    188  CH_QNET      Counter:      12   Parms: SM      L1      
 Computing Diagnostic #    190  CH_EmP       Counter:      12   Parms: SM      L1      
 Computing Diagnostic #    192  CH_Uwind     Counter:      12   Parms: UU      L1      
           Vector  Mate for  CH_Uwind     Diagnostic #    193  CH_Vwind exists 
 Computing Diagnostic #    193  CH_Vwind     Counter:      12   Parms: VV      L1      
           Vector  Mate for  CH_Vwind     Diagnostic #    192  CH_Uwind exists 
 cg2d: Sum(rhs),rhsMax =   2.33517298475761E-06  3.71480483506397E-03
 cg2d: Sum(rhs),rhsMax =   2.59799520918591E-06  4.05158270224153E-03
 cg2d: Sum(rhs),rhsMax =   2.94866405603500E-06  4.39104755376560E-03
(PID.TID 0000.0001)      cg2d_init_res =   5.42658702713276E-01
(PID.TID 0000.0001)      cg2d_iters(min,last) =      -1      61
(PID.TID 0000.0001)      cg2d_last_res =   8.79008321239725E-08
(PID.TID 0000.0001) // =======================================================
(PID.TID 0000.0001) // Begin MONITOR dynamic field statistics
(PID.TID 0000.0001) // =======================================================
(PID.TID 0000.0001) %MON time_tsnumber                =                    15
(PID.TID 0000.0001) %MON time_secondsf                =   1.8000000000000E+04
(PID.TID 0000.0001) %MON dynstat_eta_max              =   3.0752561184373E-03
(PID.TID 0000.0001) %MON dynstat_eta_min              =  -3.5614486590484E-03
(PID.TID 0000.0001) %MON dynstat_eta_mean             =  -9.8143291795429E-12
(PID.TID 0000.0001) %MON dynstat_eta_sd               =   9.3219513900465E-04
(PID.TID 0000.0001) %MON dynstat_eta_del2             =   3.9585766329331E-07
(PID.TID 0000.0001) %MON dynstat_uvel_max             =   4.0791315193180E-04
(PID.TID 0000.0001) %MON dynstat_uvel_min             =  -4.9679527441202E-04
(PID.TID 0000.0001) %MON dynstat_uvel_mean            =  -8.6328788356329E-07
(PID.TID 0000.0001) %MON dynstat_uvel_sd              =   2.0099295466511E-04
(PID.TID 0000.0001) %MON dynstat_uvel_del2            =   1.3550708271863E-07
(PID.TID 0000.0001) %MON dynstat_vvel_max             =   5.6730526229305E-04
(PID.TID 0000.0001) %MON dynstat_vvel_min             =  -4.7057529064888E-04
(PID.TID 0000.0001) %MON dynstat_vvel_mean            =   2.3896538116684E-06
(PID.TID 0000.0001) %MON dynstat_vvel_sd              =   1.6817262308562E-04
(PID.TID 0000.0001) %MON dynstat_vvel_del2            =   2.3732066719972E-08
(PID.TID 0000.0001) %MON dynstat_wvel_max             =   1.7284969608463E-07
(PID.TID 0000.0001) %MON dynstat_wvel_min             =  -1.5582009755859E-07
(PID.TID 0000.0001) %MON dynstat_wvel_mean            =  -4.4804803196397E-23
(PID.TID 0000.0001) %MON dynstat_wvel_sd              =   5.8155119414968E-08
(PID.TID 0000.0001) %MON dynstat_wvel_del2            =   2.8817105993507E-11
(PID.TID 0000.0001) %MON dynstat_theta_max            =   2.0001029990986E+01
(PID.TID 0000.0001) %MON dynstat_theta_min            =   1.9999177224331E+01
(PID.TID 0000.0001) %MON dynstat_theta_mean           =   2.0000523883248E+01
(PID.TID 0000.0001) %MON dynstat_theta_sd             =   1.5790723588222E-04
(PID.TID 0000.0001) %MON dynstat_theta_del2           =   2.2480803825553E-07
(PID.TID 0000.0001) %MON dynstat_salt_max             =   3.5000044177916E+01
(PID.TID 0000.0001) %MON dynstat_salt_min             =   3.4991709927849E+01
(PID.TID 0000.0001) %MON dynstat_salt_mean            =   3.4999879385784E+01
(PID.TID 0000.0001) %MON dynstat_salt_sd              =   7.8474924595940E-04
(PID.TID 0000.0001) %MON dynstat_salt_del2            =   1.1266315619880E-06
(PID.TID 0000.0001) %MON forcing_qnet_max             =   2.0662749718860E+02
(PID.TID 0000.0001) %MON forcing_qnet_min             =  -2.2873708419885E+02
(PID.TID 0000.0001) %MON forcing_qnet_mean            =  -1.1632884906844E+02
(PID.TID 0000.0001) %MON forcing_qnet_sd              =   4.1380249447136E+01
(PID.TID 0000.0001) %MON forcing_qnet_del2            =   8.3875028093983E-02
(PID.TID 0000.0001) %MON forcing_qsw_max              =  -1.8787878787879E+02
(PID.TID 0000.0001) %MON forcing_qsw_min              =  -2.2462121212121E+02
(PID.TID 0000.0001) %MON forcing_qsw_mean             =  -2.1233709653010E+02
(PID.TID 0000.0001) %MON forcing_qsw_sd               =   7.9326552219826E+00
(PID.TID 0000.0001) %MON forcing_qsw_del2             =   7.5690028615512E-01
(PID.TID 0000.0001) %MON forcing_empmr_max            =   7.3582680970698E-05
(PID.TID 0000.0001) %MON forcing_empmr_min            =  -1.3065946502122E-02
(PID.TID 0000.0001) %MON forcing_empmr_mean           =  -1.8936418012901E-04
(PID.TID 0000.0001) %MON forcing_empmr_sd             =   1.2387451425309E-03
(PID.TID 0000.0001) %MON forcing_empmr_del2           =   2.1462266751245E-06
(PID.TID 0000.0001) %MON forcing_fu_max               =   3.7432658188485E-02
(PID.TID 0000.0001) %MON forcing_fu_min               =  -4.4126411248299E-02
(PID.TID 0000.0001) %MON forcing_fu_mean              =   4.5188334187299E-03
(PID.TID 0000.0001) %MON forcing_fu_sd                =   2.0211599457132E-02
(PID.TID 0000.0001) %MON forcing_fu_del2              =   1.3129088253129E-05
(PID.TID 0000.0001) %MON forcing_fv_max               =   2.1853221308395E-06
(PID.TID 0000.0001) %MON forcing_fv_min               =  -2.9348768765045E-06
(PID.TID 0000.0001) %MON forcing_fv_mean              =   1.1924738130317E-08
(PID.TID 0000.0001) %MON forcing_fv_sd                =   6.2355715328067E-07
(PID.TID 0000.0001) %MON forcing_fv_del2              =   4.6496352584561E-10
(PID.TID 0000.0001) %MON trAdv_CFL_u_max              =   2.5055747073428E-05
(PID.TID 0000.0001) %MON trAdv_CFL_v_max              =   2.4449455347023E-05
(PID.TID 0000.0001) %MON trAdv_CFL_w_max              =   2.0741963530156E-07
(PID.TID 0000.0001) %MON advcfl_uvel_max              =   2.5055727197347E-05
(PID.TID 0000.0001) %MON advcfl_vvel_max              =   2.4492958662446E-05
(PID.TID 0000.0001) %MON advcfl_wvel_max              =   4.1483927060311E-07
(PID.TID 0000.0001) %MON advcfl_W_hf_max              =   0.0000000000000E+00
(PID.TID 0000.0001) %MON pe_b_mean                    =   4.2623850470870E-09
(PID.TID 0000.0001) %MON ke_max                       =   1.6061040892973E-07
(PID.TID 0000.0001) %MON ke_mean                      =   3.3847946316095E-08
(PID.TID 0000.0001) %MON ke_vol                       =   3.9285959103706E+15
(PID.TID 0000.0001) %MON vort_r_min                   =  -1.4421697522169E-08
(PID.TID 0000.0001) %MON vort_r_max                   =   2.6400326892057E-08
(PID.TID 0000.0001) %MON vort_a_mean                  =   9.0315070673762E-05
(PID.TID 0000.0001) %MON vort_a_sd                    =   1.0358271160776E-05
(PID.TID 0000.0001) %MON vort_p_mean                  =   9.3807280711835E-05
(PID.TID 0000.0001) %MON vort_p_sd                    =   3.1546422491532E-05
(PID.TID 0000.0001) %MON surfExpan_theta_mean         =   6.9580790647953E-13
(PID.TID 0000.0001) %MON surfExpan_salt_mean          =  -1.3098778212017E-11
(PID.TID 0000.0001) // =======================================================
(PID.TID 0000.0001) // End MONITOR dynamic field statistics
(PID.TID 0000.0001) // =======================================================
 cg2d: Sum(rhs),rhsMax =   3.29548088906506E-06  4.73255856691004E-03
 cg2d: Sum(rhs),rhsMax =   3.24334056678310E-06  5.07595154108197E-03
 cg2d: Sum(rhs),rhsMax =   2.93904948911461E-06  5.42140211808803E-03
(PID.TID 0000.0001)      cg2d_init_res =   4.24708338683848E-01
(PID.TID 0000.0001)      cg2d_iters(min,last) =      -1      60
(PID.TID 0000.0001)      cg2d_last_res =   8.84057157999124E-08
(PID.TID 0000.0001) // =======================================================
(PID.TID 0000.0001) // Begin MONITOR dynamic field statistics
(PID.TID 0000.0001) // =======================================================
(PID.TID 0000.0001) %MON time_tsnumber                =                    18
(PID.TID 0000.0001) %MON time_secondsf                =   2.1600000000000E+04
(PID.TID 0000.0001) %MON dynstat_eta_max              =   3.7316817585185E-03
(PID.TID 0000.0001) %MON dynstat_eta_min              =  -3.4295806841169E-03
(PID.TID 0000.0001) %MON dynstat_eta_mean             =  -9.1078997644601E-12
(PID.TID 0000.0001) %MON dynstat_eta_sd               =   9.4785579374064E-04
(PID.TID 0000.0001) %MON dynstat_eta_del2             =   4.7195963661500E-07
(PID.TID 0000.0001) %MON dynstat_uvel_max             =   4.7097416189913E-04
(PID.TID 0000.0001) %MON dynstat_uvel_min             =  -6.0672253834396E-04
(PID.TID 0000.0001) %MON dynstat_uvel_mean            =  -9.6194253575092E-06
(PID.TID 0000.0001) %MON dynstat_uvel_sd              =   2.3918162987725E-04
(PID.TID 0000.0001) %MON dynstat_uvel_del2            =   1.8270981214771E-07
(PID.TID 0000.0001) %MON dynstat_vvel_max             =   6.7663075705883E-04
(PID.TID 0000.0001) %MON dynstat_vvel_min             =  -5.6338467717815E-04
(PID.TID 0000.0001) %MON dynstat_vvel_mean            =   1.4596813755918E-06
(PID.TID 0000.0001) %MON dynstat_vvel_sd              =   2.0043472750794E-04
(PID.TID 0000.0001) %MON dynstat_vvel_del2            =   3.0511746716181E-08
(PID.TID 0000.0001) %MON dynstat_wvel_max             =   1.9182790713360E-07
(PID.TID 0000.0001) %MON dynstat_wvel_min             =  -1.6765235262238E-07
(PID.TID 0000.0001) %MON dynstat_wvel_mean            =   1.6357309103447E-23
(PID.TID 0000.0001) %MON dynstat_wvel_sd              =   5.9101188436581E-08
(PID.TID 0000.0001) %MON dynstat_wvel_del2            =   2.7081179767082E-11
(PID.TID 0000.0001) %MON dynstat_theta_max            =   2.0001233150964E+01
(PID.TID 0000.0001) %MON dynstat_theta_min            =   1.9998991048602E+01
(PID.TID 0000.0001) %MON dynstat_theta_mean           =   2.0000628630831E+01
(PID.TID 0000.0001) %MON dynstat_theta_sd             =   1.9497825744492E-04
(PID.TID 0000.0001) %MON dynstat_theta_del2           =   2.9685899501372E-07
(PID.TID 0000.0001) %MON dynstat_salt_max             =   3.5000053447847E+01
(PID.TID 0000.0001) %MON dynstat_salt_min             =   3.4990071850867E+01
(PID.TID 0000.0001) %MON dynstat_salt_mean            =   3.4999855574333E+01
(PID.TID 0000.0001) %MON dynstat_salt_sd              =   9.3967074790748E-04
(PID.TID 0000.0001) %MON dynstat_salt_del2            =   1.3270279415155E-06
(PID.TID 0000.0001) %MON forcing_qnet_max             =   2.0651060551756E+02
(PID.TID 0000.0001) %MON forcing_qnet_min             =  -2.2863576056185E+02
(PID.TID 0000.0001) %MON forcing_qnet_mean            =  -1.1611333189829E+02
(PID.TID 0000.0001) %MON forcing_qnet_sd              =   4.2789618984451E+01
(PID.TID 0000.0001) %MON forcing_qnet_del2            =   8.9048035992903E-02
(PID.TID 0000.0001) %MON forcing_qsw_max              =  -1.8787878787879E+02
(PID.TID 0000.0001) %MON forcing_qsw_min              =  -2.2462121212121E+02
(PID.TID 0000.0001) %MON forcing_qsw_mean             =  -2.1233709653010E+02
(PID.TID 0000.0001) %MON forcing_qsw_sd               =   7.9326552219826E+00
(PID.TID 0000.0001) %MON forcing_qsw_del2             =   7.5690028615512E-01
(PID.TID 0000.0001) %MON forcing_empmr_max            =   7.3559962938410E-05
(PID.TID 0000.0001) %MON forcing_empmr_min            =  -1.3039874623379E-02
(PID.TID 0000.0001) %MON forcing_empmr_mean           =  -1.8863156790260E-04
(PID.TID 0000.0001) %MON forcing_empmr_sd             =   1.2347403970462E-03
(PID.TID 0000.0001) %MON forcing_empmr_del2           =   2.1215081962279E-06
(PID.TID 0000.0001) %MON forcing_fu_max               =   3.7430233778936E-02
(PID.TID 0000.0001) %MON forcing_fu_min               =  -4.4122260168378E-02
(PID.TID 0000.0001) %MON forcing_fu_mean              =   4.5973792133016E-03
(PID.TID 0000.0001) %MON forcing_fu_sd                =   2.0166060325420E-02
(PID.TID 0000.0001) %MON forcing_fu_del2              =   1.4458416245555E-05
(PID.TID 0000.0001) %MON forcing_fv_max               =   2.7447603345295E-06
(PID.TID 0000.0001) %MON forcing_fv_min               =  -3.5503824165148E-06
(PID.TID 0000.0001) %MON forcing_fv_mean              =   2.3306245010913E-08
(PID.TID 0000.0001) %MON forcing_fv_sd                =   7.6736723354581E-07
(PID.TID 0000.0001) %MON forcing_fv_del2              =   5.5699204649056E-10
(PID.TID 0000.0001) %MON trAdv_CFL_u_max              =   3.0599901503666E-05
(PID.TID 0000.0001) %MON trAdv_CFL_v_max              =   2.9161114096253E-05
(PID.TID 0000.0001) %MON trAdv_CFL_w_max              =   2.3019348856032E-07
(PID.TID 0000.0001) %MON advcfl_uvel_max              =   3.0599877229550E-05
(PID.TID 0000.0001) %MON advcfl_vvel_max              =   2.9213000943080E-05
(PID.TID 0000.0001) %MON advcfl_wvel_max              =   4.6038697712064E-07
(PID.TID 0000.0001) %MON advcfl_W_hf_max              =   0.0000000000000E+00
(PID.TID 0000.0001) %MON pe_b_mean                    =   4.4068021210944E-09
(PID.TID 0000.0001) %MON ke_max                       =   2.2802497777561E-07
(PID.TID 0000.0001) %MON ke_mean                      =   4.8035266043778E-08
(PID.TID 0000.0001) %MON ke_vol                       =   3.9285959103706E+15
(PID.TID 0000.0001) %MON vort_r_min                   =  -1.9122780338175E-08
(PID.TID 0000.0001) %MON vort_r_max                   =   3.1436490196828E-08
(PID.TID 0000.0001) %MON vort_a_mean                  =   9.0315070673762E-05
(PID.TID 0000.0001) %MON vort_a_sd                    =   1.0358254070139E-05
(PID.TID 0000.0001) %MON vort_p_mean                  =   9.3807280711835E-05
(PID.TID 0000.0001) %MON vort_p_sd                    =   3.1546946842211E-05
(PID.TID 0000.0001) %MON surfExpan_theta_mean         =   1.9901164954626E-12
(PID.TID 0000.0001) %MON surfExpan_salt_mean          =  -1.8594890933597E-11
(PID.TID 0000.0001) // =======================================================
(PID.TID 0000.0001) // End MONITOR dynamic field statistics
(PID.TID 0000.0001) // =======================================================
 cg2d: Sum(rhs),rhsMax =   2.50878587237935E-06  5.76910974287675E-03
 cg2d: Sum(rhs),rhsMax =   2.10703306890991E-06  6.11976589648460E-03
 cg2d: Sum(rhs),rhsMax =   1.80585453257720E-06  6.47372182155740E-03
(PID.TID 0000.0001)      cg2d_init_res =   3.72778815398990E-01
(PID.TID 0000.0001)      cg2d_iters(min,last) =      -1      60
(PID.TID 0000.0001)      cg2d_last_res =   8.58618775814771E-08
(PID.TID 0000.0001) // =======================================================
(PID.TID 0000.0001) // Begin MONITOR dynamic field statistics
(PID.TID 0000.0001) // =======================================================
(PID.TID 0000.0001) %MON time_tsnumber                =                    21
(PID.TID 0000.0001) %MON time_secondsf                =   2.5200000000000E+04
(PID.TID 0000.0001) %MON dynstat_eta_max              =   4.4527604543926E-03
(PID.TID 0000.0001) %MON dynstat_eta_min              =  -3.2691856370509E-03
(PID.TID 0000.0001) %MON dynstat_eta_mean             =  -6.8254423006648E-12
(PID.TID 0000.0001) %MON dynstat_eta_sd               =   9.9595470896078E-04
(PID.TID 0000.0001) %MON dynstat_eta_del2             =   5.4883255797516E-07
(PID.TID 0000.0001) %MON dynstat_uvel_max             =   5.3869288993972E-04
(PID.TID 0000.0001) %MON dynstat_uvel_min             =  -7.3120314704298E-04
(PID.TID 0000.0001) %MON dynstat_uvel_mean            =  -1.9240915898001E-05
(PID.TID 0000.0001) %MON dynstat_uvel_sd              =   2.8097559794958E-04
(PID.TID 0000.0001) %MON dynstat_uvel_del2            =   2.3350009933292E-07
(PID.TID 0000.0001) %MON dynstat_vvel_max             =   7.6265710655295E-04
(PID.TID 0000.0001) %MON dynstat_vvel_min             =  -6.4417603417401E-04
(PID.TID 0000.0001) %MON dynstat_vvel_mean            =  -3.0832770891802E-06
(PID.TID 0000.0001) %MON dynstat_vvel_sd              =   2.2669841124725E-04
(PID.TID 0000.0001) %MON dynstat_vvel_del2            =   3.8097923179875E-08
(PID.TID 0000.0001) %MON dynstat_wvel_max             =   2.0729579287253E-07
(PID.TID 0000.0001) %MON dynstat_wvel_min             =  -1.6700863161856E-07
(PID.TID 0000.0001) %MON dynstat_wvel_mean            =  -1.2327247440279E-23
(PID.TID 0000.0001) %MON dynstat_wvel_sd              =   6.1320563223975E-08
(PID.TID 0000.0001) %MON dynstat_wvel_del2            =   2.9678382369064E-11
(PID.TID 0000.0001) %MON dynstat_theta_max            =   2.0001435299290E+01
(PID.TID 0000.0001) %MON dynstat_theta_min            =   1.9998804915482E+01
(PID.TID 0000.0001) %MON dynstat_theta_mean           =   2.0000733163493E+01
(PID.TID 0000.0001) %MON dynstat_theta_sd             =   2.3313823848626E-04
(PID.TID 0000.0001) %MON dynstat_theta_del2           =   3.7302741831034E-07
(PID.TID 0000.0001) %MON dynstat_salt_max             =   3.5000062716975E+01
(PID.TID 0000.0001) %MON dynstat_salt_min             =   3.4988443252784E+01
(PID.TID 0000.0001) %MON dynstat_salt_mean            =   3.4999831920842E+01
(PID.TID 0000.0001) %MON dynstat_salt_sd              =   1.0937673496569E-03
(PID.TID 0000.0001) %MON dynstat_salt_del2            =   1.5313206625266E-06
(PID.TID 0000.0001) %MON forcing_qnet_max             =   2.0648765331617E+02
(PID.TID 0000.0001) %MON forcing_qnet_min             =  -2.2859884078867E+02
(PID.TID 0000.0001) %MON forcing_qnet_mean            =  -1.1586577324159E+02
(PID.TID 0000.0001) %MON forcing_qnet_sd              =   4.3953802045645E+01
(PID.TID 0000.0001) %MON forcing_qnet_del2            =   9.2418118466937E-02
(PID.TID 0000.0001) %MON forcing_qsw_max              =  -1.8787878787879E+02
(PID.TID 0000.0001) %MON forcing_qsw_min              =  -2.2462121212121E+02
(PID.TID 0000.0001) %MON forcing_qsw_mean             =  -2.1233709653010E+02
(PID.TID 0000.0001) %MON forcing_qsw_sd               =   7.9326552219826E+00
(PID.TID 0000.0001) %MON forcing_qsw_del2             =   7.5690028615512E-01
(PID.TID 0000.0001) %MON forcing_empmr_max            =   7.3555199082124E-05
(PID.TID 0000.0001) %MON forcing_empmr_min            =  -1.3014594291352E-02
(PID.TID 0000.0001) %MON forcing_empmr_mean           =  -1.8754293994696E-04
(PID.TID 0000.0001) %MON forcing_empmr_sd             =   1.2302005840644E-03
(PID.TID 0000.0001) %MON forcing_empmr_del2           =   2.1539960496870E-06
(PID.TID 0000.0001) %MON forcing_fu_max               =   3.7428739160323E-02
(PID.TID 0000.0001) %MON forcing_fu_min               =  -4.4121160847945E-02
(PID.TID 0000.0001) %MON forcing_fu_mean              =   4.6647358176877E-03
(PID.TID 0000.0001) %MON forcing_fu_sd                =   2.0132853333769E-02
(PID.TID 0000.0001) %MON forcing_fu_del2              =   1.5405666986414E-05
(PID.TID 0000.0001) %MON forcing_fv_max               =   3.2305473056225E-06
(PID.TID 0000.0001) %MON forcing_fv_min               =  -4.0168178311079E-06
(PID.TID 0000.0001) %MON forcing_fv_mean              =   4.5680252972655E-08
(PID.TID 0000.0001) %MON forcing_fv_sd                =   8.8381224336712E-07
(PID.TID 0000.0001) %MON forcing_fv_del2              =   6.3510161719240E-10
(PID.TID 0000.0001) %MON trAdv_CFL_u_max              =   3.6878050285979E-05
(PID.TID 0000.0001) %MON trAdv_CFL_v_max              =   3.2868637241944E-05
(PID.TID 0000.0001) %MON trAdv_CFL_w_max              =   2.4875495144704E-07
(PID.TID 0000.0001) %MON advcfl_uvel_max              =   3.6878021031569E-05
(PID.TID 0000.0001) %MON advcfl_vvel_max              =   3.2927120945289E-05
(PID.TID 0000.0001) %MON advcfl_wvel_max              =   4.9750990289408E-07
(PID.TID 0000.0001) %MON advcfl_W_hf_max              =   0.0000000000000E+00
(PID.TID 0000.0001) %MON pe_b_mean                    =   4.8653959621871E-09
(PID.TID 0000.0001) %MON ke_max                       =   2.8985308692584E-07
(PID.TID 0000.0001) %MON ke_mean                      =   6.4417777253840E-08
(PID.TID 0000.0001) %MON ke_vol                       =   3.9285959103706E+15
(PID.TID 0000.0001) %MON vort_r_min                   =  -2.3257252952162E-08
(PID.TID 0000.0001) %MON vort_r_max                   =   3.5433303029127E-08
(PID.TID 0000.0001) %MON vort_a_mean                  =   9.0315070673762E-05
(PID.TID 0000.0001) %MON vort_a_sd                    =   1.0358235143262E-05
(PID.TID 0000.0001) %MON vort_p_mean                  =   9.3807280711835E-05
(PID.TID 0000.0001) %MON vort_p_sd                    =   3.1547443352563E-05
(PID.TID 0000.0001) %MON surfExpan_theta_mean         =   4.3106070607953E-12
(PID.TID 0000.0001) %MON surfExpan_salt_mean          =  -2.4613819133873E-11
(PID.TID 0000.0001) // =======================================================
(PID.TID 0000.0001) // End MONITOR dynamic field statistics
(PID.TID 0000.0001) // =======================================================
 cg2d: Sum(rhs),rhsMax =   1.58778668923887E-06  6.83113428034170E-03
 cg2d: Sum(rhs),rhsMax =   1.40661971226308E-06  7.19215981461658E-03
 cg2d: Sum(rhs),rhsMax =   1.22923604961578E-06  7.55638866200288E-03
(PID.TID 0000.0001)      cg2d_init_res =   3.06537470209256E-01
(PID.TID 0000.0001)      cg2d_iters(min,last) =      -1      59
(PID.TID 0000.0001)      cg2d_last_res =   8.86712371344733E-08
(PID.TID 0000.0001) // =======================================================
(PID.TID 0000.0001) // Begin MONITOR dynamic field statistics
(PID.TID 0000.0001) // =======================================================
(PID.TID 0000.0001) %MON time_tsnumber                =                    24
(PID.TID 0000.0001) %MON time_secondsf                =   2.8800000000000E+04
(PID.TID 0000.0001) %MON dynstat_eta_max              =   5.2124470299053E-03
(PID.TID 0000.0001) %MON dynstat_eta_min              =  -3.2294170950859E-03
(PID.TID 0000.0001) %MON dynstat_eta_mean             =  -5.4051904933742E-12
(PID.TID 0000.0001) %MON dynstat_eta_sd               =   1.0787630278126E-03
(PID.TID 0000.0001) %MON dynstat_eta_del2             =   6.2769884959020E-07
(PID.TID 0000.0001) %MON dynstat_uvel_max             =   6.0823808416035E-04
(PID.TID 0000.0001) %MON dynstat_uvel_min             =  -8.5762849790179E-04
(PID.TID 0000.0001) %MON dynstat_uvel_mean            =  -2.9396987240275E-05
(PID.TID 0000.0001) %MON dynstat_uvel_sd              =   3.2413818859125E-04
(PID.TID 0000.0001) %MON dynstat_uvel_del2            =   2.8643764568968E-07
(PID.TID 0000.0001) %MON dynstat_vvel_max             =   8.4022932570869E-04
(PID.TID 0000.0001) %MON dynstat_vvel_min             =  -7.1887218270403E-04
(PID.TID 0000.0001) %MON dynstat_vvel_mean            =  -9.3996059295915E-06
(PID.TID 0000.0001) %MON dynstat_vvel_sd              =   2.5008164580916E-04
(PID.TID 0000.0001) %MON dynstat_vvel_del2            =   4.6321127546809E-08
(PID.TID 0000.0001) %MON dynstat_wvel_max             =   2.1406393009533E-07
(PID.TID 0000.0001) %MON dynstat_wvel_min             =  -2.1570226129107E-07
(PID.TID 0000.0001) %MON dynstat_wvel_mean            =   1.1378997637180E-23
(PID.TID 0000.0001) %MON dynstat_wvel_sd              =   5.8186441223904E-08
(PID.TID 0000.0001) %MON dynstat_wvel_del2            =   2.9645355147031E-11
(PID.TID 0000.0001) %MON dynstat_theta_max            =   2.0001636387033E+01
(PID.TID 0000.0001) %MON dynstat_theta_min            =   1.9998618798082E+01
(PID.TID 0000.0001) %MON dynstat_theta_mean           =   2.0000837462420E+01
(PID.TID 0000.0001) %MON dynstat_theta_sd             =   2.7220504209018E-04
(PID.TID 0000.0001) %MON dynstat_theta_del2           =   4.5162217602278E-07
(PID.TID 0000.0001) %MON dynstat_salt_max             =   3.5000071985697E+01
(PID.TID 0000.0001) %MON dynstat_salt_min             =   3.4986825550664E+01
(PID.TID 0000.0001) %MON dynstat_salt_mean            =   3.4999808418395E+01
(PID.TID 0000.0001) %MON dynstat_salt_sd              =   1.2470187317140E-03
(PID.TID 0000.0001) %MON dynstat_salt_del2            =   1.7429899358471E-06
(PID.TID 0000.0001) %MON forcing_qnet_max             =   2.0647779355369E+02
(PID.TID 0000.0001) %MON forcing_qnet_min             =  -2.2859085921083E+02
(PID.TID 0000.0001) %MON forcing_qnet_mean            =  -1.1560216084074E+02
(PID.TID 0000.0001) %MON forcing_qnet_sd              =   4.4931824549097E+01
(PID.TID 0000.0001) %MON forcing_qnet_del2            =   9.4296520127643E-02
(PID.TID 0000.0001) %MON forcing_qsw_max              =  -1.8787878787879E+02
(PID.TID 0000.0001) %MON forcing_qsw_min              =  -2.2462121212121E+02
(PID.TID 0000.0001) %MON forcing_qsw_mean             =  -2.1233709653010E+02
(PID.TID 0000.0001) %MON forcing_qsw_sd               =   7.9326552219826E+00
(PID.TID 0000.0001) %MON forcing_qsw_del2             =   7.5690028615512E-01
(PID.TID 0000.0001) %MON forcing_empmr_max            =   7.3552966846939E-05
(PID.TID 0000.0001) %MON forcing_empmr_min            =  -1.2987684574609E-02
(PID.TID 0000.0001) %MON forcing_empmr_mean           =  -1.8641677244087E-04
(PID.TID 0000.0001) %MON forcing_empmr_sd             =   1.2258283993705E-03
(PID.TID 0000.0001) %MON forcing_empmr_del2           =   2.2345652018751E-06
(PID.TID 0000.0001) %MON forcing_fu_max               =   3.7428490545170E-02
(PID.TID 0000.0001) %MON forcing_fu_min               =  -4.4120727182474E-02
(PID.TID 0000.0001) %MON forcing_fu_mean              =   4.7242966088637E-03
(PID.TID 0000.0001) %MON forcing_fu_sd                =   2.0107228812597E-02
(PID.TID 0000.0001) %MON forcing_fu_del2              =   1.6002187287617E-05
(PID.TID 0000.0001) %MON forcing_fv_max               =   3.6411880796980E-06
(PID.TID 0000.0001) %MON forcing_fv_min               =  -4.4269221743715E-06
(PID.TID 0000.0001) %MON forcing_fv_mean              =   7.1001629220840E-08
(PID.TID 0000.0001) %MON forcing_fv_sd                =   9.8184128489983E-07
(PID.TID 0000.0001) %MON forcing_fv_del2              =   7.1017538574828E-10
(PID.TID 0000.0001) %MON trAdv_CFL_u_max              =   4.3254281659229E-05
(PID.TID 0000.0001) %MON trAdv_CFL_v_max              =   3.6211808254939E-05
(PID.TID 0000.0001) %MON trAdv_CFL_w_max              =   2.5687671611440E-07
(PID.TID 0000.0001) %MON advcfl_uvel_max              =   4.3254247346717E-05
(PID.TID 0000.0001) %MON advcfl_vvel_max              =   3.6276240517097E-05
(PID.TID 0000.0001) %MON advcfl_wvel_max              =   5.1768542709857E-07
(PID.TID 0000.0001) %MON advcfl_W_hf_max              =   0.0000000000000E+00
(PID.TID 0000.0001) %MON pe_b_mean                    =   5.7080940322103E-09
(PID.TID 0000.0001) %MON ke_max                       =   3.6776004519788E-07
(PID.TID 0000.0001) %MON ke_mean                      =   8.3066466801305E-08
(PID.TID 0000.0001) %MON ke_vol                       =   3.9285959103706E+15
(PID.TID 0000.0001) %MON vort_r_min                   =  -2.6234337726610E-08
(PID.TID 0000.0001) %MON vort_r_max                   =   3.9037334151856E-08
(PID.TID 0000.0001) %MON vort_a_mean                  =   9.0315070673762E-05
(PID.TID 0000.0001) %MON vort_a_sd                    =   1.0358215040879E-05
(PID.TID 0000.0001) %MON vort_p_mean                  =   9.3807280711835E-05
(PID.TID 0000.0001) %MON vort_p_sd                    =   3.1547896883799E-05
(PID.TID 0000.0001) %MON surfExpan_theta_mean         =   6.8397319723031E-12
(PID.TID 0000.0001) %MON surfExpan_salt_mean          =  -2.9829035124799E-11
(PID.TID 0000.0001) // =======================================================
(PID.TID 0000.0001) // End MONITOR dynamic field statistics
(PID.TID 0000.0001) // =======================================================
 Computing Diagnostic #    187  CH_TAIR      Counter:      12   Parms: SM      L1      
 Computing Diagnostic #    189  CH_QAIR      Counter:      12   Parms: SM      L1      
 Computing Diagnostic #    188  CH_QNET      Counter:      12   Parms: SM      L1      
 Computing Diagnostic #    190  CH_EmP       Counter:      12   Parms: SM      L1      
 Computing Diagnostic #    192  CH_Uwind     Counter:      12   Parms: UU      L1      
           Vector  Mate for  CH_Uwind     Diagnostic #    193  CH_Vwind exists 
 Computing Diagnostic #    193  CH_Vwind     Counter:      12   Parms: VV      L1      
           Vector  Mate for  CH_Vwind     Diagnostic #    192  CH_Uwind exists 
(PID.TID 0000.0001) %CHECKPOINT        24 ckptA
(PID.TID 0000.0001)   Seconds in section "ALL                    [THE_MODEL_MAIN]":
(PID.TID 0000.0001)           User time:   15.145697899395600
(PID.TID 0000.0001)         System time:  0.14197800331749022
(PID.TID 0000.0001)     Wall clock time:   45.398801088333130
(PID.TID 0000.0001)          No. starts:           1
(PID.TID 0000.0001)           No. stops:           1
(PID.TID 0000.0001)   Seconds in section "INITIALISE_FIXED       [THE_MODEL_MAIN]":
(PID.TID 0000.0001)           User time:  0.49892402463592589
(PID.TID 0000.0001)         System time:  7.19890000764280558E-002
(PID.TID 0000.0001)     Wall clock time:   12.142062187194824
(PID.TID 0000.0001)          No. starts:           1
(PID.TID 0000.0001)           No. stops:           1
(PID.TID 0000.0001)   Seconds in section "THE_MAIN_LOOP          [THE_MODEL_MAIN]":
(PID.TID 0000.0001)           User time:   14.642774164676666
(PID.TID 0000.0001)         System time:  6.89899995923042297E-002
(PID.TID 0000.0001)     Wall clock time:   33.251444816589355
(PID.TID 0000.0001)          No. starts:           1
(PID.TID 0000.0001)           No. stops:           1
(PID.TID 0000.0001)   Seconds in section "INITIALISE_VARIA    [THE_MAIN_LOOP]":
(PID.TID 0000.0001)           User time:  0.16197597980499268
(PID.TID 0000.0001)         System time:  1.29979997873306274E-002
(PID.TID 0000.0001)     Wall clock time:   2.7404530048370361
(PID.TID 0000.0001)          No. starts:           1
(PID.TID 0000.0001)           No. stops:           1
(PID.TID 0000.0001)   Seconds in section "MAIN LOOP           [THE_MAIN_LOOP]":
(PID.TID 0000.0001)           User time:   14.480798184871674
(PID.TID 0000.0001)         System time:  5.59919998049736023E-002
(PID.TID 0000.0001)     Wall clock time:   30.510949134826660
(PID.TID 0000.0001)          No. starts:           1
(PID.TID 0000.0001)           No. stops:           1
(PID.TID 0000.0001)   Seconds in section "MAIN_DO_LOOP        [THE_MAIN_LOOP]":
(PID.TID 0000.0001)           User time:   14.480798184871674
(PID.TID 0000.0001)         System time:  5.59919998049736023E-002
(PID.TID 0000.0001)     Wall clock time:   30.510721683502197
(PID.TID 0000.0001)          No. starts:          24
(PID.TID 0000.0001)           No. stops:          24
(PID.TID 0000.0001)   Seconds in section "FORWARD_STEP        [MAIN_DO_LOOP]":
(PID.TID 0000.0001)           User time:   14.480798184871674
(PID.TID 0000.0001)         System time:  5.59919998049736023E-002
(PID.TID 0000.0001)     Wall clock time:   30.510286808013916
(PID.TID 0000.0001)          No. starts:          24
(PID.TID 0000.0001)           No. stops:          24
(PID.TID 0000.0001)   Seconds in section "DO_STATEVARS_DIAGS  [FORWARD_STEP]":
(PID.TID 0000.0001)           User time:  2.99978256225585938E-003
(PID.TID 0000.0001)         System time:   0.0000000000000000
(PID.TID 0000.0001)     Wall clock time:  4.51159477233886719E-003
(PID.TID 0000.0001)          No. starts:          72
(PID.TID 0000.0001)           No. stops:          72
(PID.TID 0000.0001)   Seconds in section "LOAD_FIELDS_DRIVER  [FORWARD_STEP]":
(PID.TID 0000.0001)           User time:  3.19897532463073730E-002
(PID.TID 0000.0001)         System time:   0.0000000000000000
(PID.TID 0000.0001)     Wall clock time:  3.10947895050048828E-002
(PID.TID 0000.0001)          No. starts:          24
(PID.TID 0000.0001)           No. stops:          24
(PID.TID 0000.0001)   Seconds in section "EXTERNAL_FLDS_LOAD [LOAD_FLDS_DRIVER]":
(PID.TID 0000.0001)           User time:  9.99450683593750000E-004
(PID.TID 0000.0001)         System time:   0.0000000000000000
(PID.TID 0000.0001)     Wall clock time:  2.31742858886718750E-004
(PID.TID 0000.0001)          No. starts:          24
(PID.TID 0000.0001)           No. stops:          24
(PID.TID 0000.0001)   Seconds in section "CHEAPAML      [FORWARD_STEP]":
(PID.TID 0000.0001)           User time:   5.3361914157867432
(PID.TID 0000.0001)         System time:  1.00000202655792236E-003
(PID.TID 0000.0001)     Wall clock time:   5.3882610797882080
(PID.TID 0000.0001)          No. starts:          24
(PID.TID 0000.0001)           No. stops:          24
(PID.TID 0000.0001)   Seconds in section "DO_ATMOSPHERIC_PHYS [FORWARD_STEP]":
(PID.TID 0000.0001)           User time:  1.00040435791015625E-003
(PID.TID 0000.0001)         System time:   0.0000000000000000
(PID.TID 0000.0001)     Wall clock time:  2.30073928833007813E-004
(PID.TID 0000.0001)          No. starts:          24
(PID.TID 0000.0001)           No. stops:          24
(PID.TID 0000.0001)   Seconds in section "DO_OCEANIC_PHYS     [FORWARD_STEP]":
(PID.TID 0000.0001)           User time:  7.99871087074279785E-002
(PID.TID 0000.0001)         System time:   0.0000000000000000
(PID.TID 0000.0001)     Wall clock time:  7.93268680572509766E-002
(PID.TID 0000.0001)          No. starts:          24
(PID.TID 0000.0001)           No. stops:          24
(PID.TID 0000.0001)   Seconds in section "DYNAMICS            [FORWARD_STEP]":
(PID.TID 0000.0001)           User time:   1.0098487734794617
(PID.TID 0000.0001)         System time:  2.00000405311584473E-003
(PID.TID 0000.0001)     Wall clock time:   1.0148339271545410
(PID.TID 0000.0001)          No. starts:          24
(PID.TID 0000.0001)           No. stops:          24
(PID.TID 0000.0001)   Seconds in section "SOLVE_FOR_PRESSURE  [FORWARD_STEP]":
(PID.TID 0000.0001)           User time:   6.2230483293533325
(PID.TID 0000.0001)         System time:  1.00000202655792236E-003
(PID.TID 0000.0001)     Wall clock time:   6.2344470024108887
(PID.TID 0000.0001)          No. starts:          24
(PID.TID 0000.0001)           No. stops:          24
(PID.TID 0000.0001)   Seconds in section "MOM_CORRECTION_STEP [FORWARD_STEP]":
(PID.TID 0000.0001)           User time:  7.99906253814697266E-002
(PID.TID 0000.0001)         System time:   0.0000000000000000
(PID.TID 0000.0001)     Wall clock time:  8.17310810089111328E-002
(PID.TID 0000.0001)          No. starts:          24
(PID.TID 0000.0001)           No. stops:          24
(PID.TID 0000.0001)   Seconds in section "INTEGR_CONTINUITY   [FORWARD_STEP]":
(PID.TID 0000.0001)           User time:  4.19957637786865234E-002
(PID.TID 0000.0001)         System time:   0.0000000000000000
(PID.TID 0000.0001)     Wall clock time:  4.25021648406982422E-002
(PID.TID 0000.0001)          No. starts:          24
(PID.TID 0000.0001)           No. stops:          24
(PID.TID 0000.0001)   Seconds in section "BLOCKING_EXCHANGES  [FORWARD_STEP]":
(PID.TID 0000.0001)           User time:  2.09962129592895508E-002
(PID.TID 0000.0001)         System time:   0.0000000000000000
(PID.TID 0000.0001)     Wall clock time:  2.14607715606689453E-002
(PID.TID 0000.0001)          No. starts:          48
(PID.TID 0000.0001)           No. stops:          48
(PID.TID 0000.0001)   Seconds in section "THERMODYNAMICS      [FORWARD_STEP]":
(PID.TID 0000.0001)           User time:  0.80687713623046875
(PID.TID 0000.0001)         System time:   0.0000000000000000
(PID.TID 0000.0001)     Wall clock time:  0.80712628364562988
(PID.TID 0000.0001)          No. starts:          24
(PID.TID 0000.0001)           No. stops:          24
(PID.TID 0000.0001)   Seconds in section "TRC_CORRECTION_STEP [FORWARD_STEP]":
(PID.TID 0000.0001)           User time:  9.99450683593750000E-004
(PID.TID 0000.0001)         System time:   0.0000000000000000
(PID.TID 0000.0001)     Wall clock time:  2.28643417358398438E-004
(PID.TID 0000.0001)          No. starts:          24
(PID.TID 0000.0001)           No. stops:          24
(PID.TID 0000.0001)   Seconds in section "MONITOR             [FORWARD_STEP]":
(PID.TID 0000.0001)           User time:  0.22796583175659180
(PID.TID 0000.0001)         System time:  9.99994575977325439E-004
(PID.TID 0000.0001)     Wall clock time:  0.23055076599121094
(PID.TID 0000.0001)          No. starts:          24
(PID.TID 0000.0001)           No. stops:          24
(PID.TID 0000.0001)   Seconds in section "DO_THE_MODEL_IO     [FORWARD_STEP]":
(PID.TID 0000.0001)           User time:  0.60090970993041992
(PID.TID 0000.0001)         System time:  4.69920039176940918E-002
(PID.TID 0000.0001)     Wall clock time:   16.554701805114746
(PID.TID 0000.0001)          No. starts:          24
(PID.TID 0000.0001)           No. stops:          24
(PID.TID 0000.0001)   Seconds in section "DO_WRITE_PICKUP     [FORWARD_STEP]":
(PID.TID 0000.0001)           User time:  1.09977722167968750E-002
(PID.TID 0000.0001)         System time:  3.99999320507049561E-003
(PID.TID 0000.0001)     Wall clock time:  1.49919986724853516E-002
(PID.TID 0000.0001)          No. starts:          24
(PID.TID 0000.0001)           No. stops:          24
(PID.TID 0000.0001) // ======================================================
(PID.TID 0000.0001) // Tile <-> Tile communication statistics
(PID.TID 0000.0001) // ======================================================
(PID.TID 0000.0001) // o Tile number: 000001
(PID.TID 0000.0001) //         No. X exchanges =              0
(PID.TID 0000.0001) //            Max. X spins =              0
(PID.TID 0000.0001) //            Min. X spins =     1000000000
(PID.TID 0000.0001) //          Total. X spins =              0
(PID.TID 0000.0001) //            Avg. X spins =       0.00E+00
(PID.TID 0000.0001) //         No. Y exchanges =              0
(PID.TID 0000.0001) //            Max. Y spins =              0
(PID.TID 0000.0001) //            Min. Y spins =     1000000000
(PID.TID 0000.0001) //          Total. Y spins =              0
(PID.TID 0000.0001) //            Avg. Y spins =       0.00E+00
(PID.TID 0000.0001) // o Tile number: 000002
(PID.TID 0000.0001) //         No. X exchanges =              0
(PID.TID 0000.0001) //            Max. X spins =              0
(PID.TID 0000.0001) //            Min. X spins =     1000000000
(PID.TID 0000.0001) //          Total. X spins =              0
(PID.TID 0000.0001) //            Avg. X spins =       0.00E+00
(PID.TID 0000.0001) //         No. Y exchanges =              0
(PID.TID 0000.0001) //            Max. Y spins =              0
(PID.TID 0000.0001) //            Min. Y spins =     1000000000
(PID.TID 0000.0001) //          Total. Y spins =              0
(PID.TID 0000.0001) //            Avg. Y spins =       0.00E+00
(PID.TID 0000.0001) // o Tile number: 000003
(PID.TID 0000.0001) //         No. X exchanges =              0
(PID.TID 0000.0001) //            Max. X spins =              0
(PID.TID 0000.0001) //            Min. X spins =     1000000000
(PID.TID 0000.0001) //          Total. X spins =              0
(PID.TID 0000.0001) //            Avg. X spins =       0.00E+00
(PID.TID 0000.0001) //         No. Y exchanges =              0
(PID.TID 0000.0001) //            Max. Y spins =              0
(PID.TID 0000.0001) //            Min. Y spins =     1000000000
(PID.TID 0000.0001) //          Total. Y spins =              0
(PID.TID 0000.0001) //            Avg. Y spins =       0.00E+00
(PID.TID 0000.0001) // o Tile number: 000004
(PID.TID 0000.0001) //         No. X exchanges =              0
(PID.TID 0000.0001) //            Max. X spins =              0
(PID.TID 0000.0001) //            Min. X spins =     1000000000
(PID.TID 0000.0001) //          Total. X spins =              0
(PID.TID 0000.0001) //            Avg. X spins =       0.00E+00
(PID.TID 0000.0001) //         No. Y exchanges =              0
(PID.TID 0000.0001) //            Max. Y spins =              0
(PID.TID 0000.0001) //            Min. Y spins =     1000000000
(PID.TID 0000.0001) //          Total. Y spins =              0
(PID.TID 0000.0001) //            Avg. Y spins =       0.00E+00
(PID.TID 0000.0001) // o Tile number: 000005
(PID.TID 0000.0001) //         No. X exchanges =              0
(PID.TID 0000.0001) //            Max. X spins =              0
(PID.TID 0000.0001) //            Min. X spins =     1000000000
(PID.TID 0000.0001) //          Total. X spins =              0
(PID.TID 0000.0001) //            Avg. X spins =       0.00E+00
(PID.TID 0000.0001) //         No. Y exchanges =              0
(PID.TID 0000.0001) //            Max. Y spins =              0
(PID.TID 0000.0001) //            Min. Y spins =     1000000000
(PID.TID 0000.0001) //          Total. Y spins =              0
(PID.TID 0000.0001) //            Avg. Y spins =       0.00E+00
(PID.TID 0000.0001) // o Tile number: 000006
(PID.TID 0000.0001) //         No. X exchanges =              0
(PID.TID 0000.0001) //            Max. X spins =              0
(PID.TID 0000.0001) //            Min. X spins =     1000000000
(PID.TID 0000.0001) //          Total. X spins =              0
(PID.TID 0000.0001) //            Avg. X spins =       0.00E+00
(PID.TID 0000.0001) //         No. Y exchanges =              0
(PID.TID 0000.0001) //            Max. Y spins =              0
(PID.TID 0000.0001) //            Min. Y spins =     1000000000
(PID.TID 0000.0001) //          Total. Y spins =              0
(PID.TID 0000.0001) //            Avg. Y spins =       0.00E+00
(PID.TID 0000.0001) // o Tile number: 000007
(PID.TID 0000.0001) //         No. X exchanges =              0
(PID.TID 0000.0001) //            Max. X spins =              0
(PID.TID 0000.0001) //            Min. X spins =     1000000000
(PID.TID 0000.0001) //          Total. X spins =              0
(PID.TID 0000.0001) //            Avg. X spins =       0.00E+00
(PID.TID 0000.0001) //         No. Y exchanges =              0
(PID.TID 0000.0001) //            Max. Y spins =              0
(PID.TID 0000.0001) //            Min. Y spins =     1000000000
(PID.TID 0000.0001) //          Total. Y spins =              0
(PID.TID 0000.0001) //            Avg. Y spins =       0.00E+00
(PID.TID 0000.0001) // o Tile number: 000008
(PID.TID 0000.0001) //         No. X exchanges =              0
(PID.TID 0000.0001) //            Max. X spins =              0
(PID.TID 0000.0001) //            Min. X spins =     1000000000
(PID.TID 0000.0001) //          Total. X spins =              0
(PID.TID 0000.0001) //            Avg. X spins =       0.00E+00
(PID.TID 0000.0001) //         No. Y exchanges =              0
(PID.TID 0000.0001) //            Max. Y spins =              0
(PID.TID 0000.0001) //            Min. Y spins =     1000000000
(PID.TID 0000.0001) //          Total. Y spins =              0
(PID.TID 0000.0001) //            Avg. Y spins =       0.00E+00
(PID.TID 0000.0001) // o Thread number: 000001
(PID.TID 0000.0001) //            No. barriers =          11468
(PID.TID 0000.0001) //      Max. barrier spins =              1
(PID.TID 0000.0001) //      Min. barrier spins =              1
(PID.TID 0000.0001) //     Total barrier spins =          11468
(PID.TID 0000.0001) //      Avg. barrier spins =       1.00E+00
PROGRAM MAIN: Execution ended Normally
