(PID.TID 0000.0001) 
(PID.TID 0000.0001) // ======================================================
(PID.TID 0000.0001) //                      MITgcm UV
(PID.TID 0000.0001) //                      =========
(PID.TID 0000.0001) // ======================================================
(PID.TID 0000.0001) // execution environment starting up...
(PID.TID 0000.0001) 
(PID.TID 0000.0001) // MITgcmUV version:  checkpoint64w
(PID.TID 0000.0001) // Build user:        jmc
(PID.TID 0000.0001) // Build host:        baudelaire
(PID.TID 0000.0001) // Build date:        Sun May 11 21:38:34 EDT 2014
(PID.TID 0000.0001) 
(PID.TID 0000.0001) // =======================================================
(PID.TID 0000.0001) // Execution Environment parameter file "eedata"
(PID.TID 0000.0001) // =======================================================
(PID.TID 0000.0001) ># Example "eedata" file
(PID.TID 0000.0001) ># Lines beginning "#" are comments
(PID.TID 0000.0001) ># nTx - No. threads per process in X
(PID.TID 0000.0001) ># nTy - No. threads per process in Y
(PID.TID 0000.0001) > &EEPARMS
(PID.TID 0000.0001) > useCubedSphereExchange=.TRUE.,
(PID.TID 0000.0001) ># Activate one line below to support 2, 3 or 6 way multi-threading
(PID.TID 0000.0001) > nTx=1,
(PID.TID 0000.0001) >#nTx=2,
(PID.TID 0000.0001) >#nTx=3,
(PID.TID 0000.0001) >#nTx=6,
(PID.TID 0000.0001) > /
(PID.TID 0000.0001) ># Note: Some systems use & as the
(PID.TID 0000.0001) ># namelist terminator. Other systems
(PID.TID 0000.0001) ># use a / character (as shown here).
(PID.TID 0000.0001) 
(PID.TID 0000.0001) // =======================================================
(PID.TID 0000.0001) // Computational Grid Specification ( see files "SIZE.h" )
(PID.TID 0000.0001) //                                  ( and "eedata"       )
(PID.TID 0000.0001) // =======================================================
(PID.TID 0000.0001)      nPx =    1 ; /* No. processes in X */
(PID.TID 0000.0001)      nPy =    1 ; /* No. processes in Y */
(PID.TID 0000.0001)      nSx =    6 ; /* No. tiles in X per process */
(PID.TID 0000.0001)      nSy =    1 ; /* No. tiles in Y per process */
(PID.TID 0000.0001)      sNx =   32 ; /* Tile size in X */
(PID.TID 0000.0001)      sNy =   32 ; /* Tile size in Y */
(PID.TID 0000.0001)      OLx =    2 ; /* Tile overlap distance in X */
(PID.TID 0000.0001)      OLy =    2 ; /* Tile overlap distance in Y */
(PID.TID 0000.0001)      nTx =    1 ; /* No. threads in X per process */
(PID.TID 0000.0001)      nTy =    1 ; /* No. threads in Y per process */
(PID.TID 0000.0001)       Nr =    5 ; /* No. levels in the vertical   */
(PID.TID 0000.0001)       Nx =  192 ; /* Total domain size in X ( = nPx*nSx*sNx ) */
(PID.TID 0000.0001)       Ny =   32 ; /* Total domain size in Y ( = nPy*nSy*sNy ) */
(PID.TID 0000.0001)   nTiles =    6 ; /* Total no. tiles per process ( = nSx*nSy ) */
(PID.TID 0000.0001)   nProcs =    1 ; /* Total no. processes ( = nPx*nPy ) */
(PID.TID 0000.0001) nThreads =    1 ; /* Total no. threads per process ( = nTx*nTy ) */
(PID.TID 0000.0001) usingMPI =    F ; /* Flag used to control whether MPI is in use */
(PID.TID 0000.0001)                   /*  note: To execute a program with MPI calls */
(PID.TID 0000.0001)                   /*  it must be launched appropriately e.g     */
(PID.TID 0000.0001)                   /*  "mpirun -np 64 ......"                    */
(PID.TID 0000.0001) useCoupler=    F ;/* Flag used to control communications with   */
(PID.TID 0000.0001)                   /*  other model components, through a coupler */
(PID.TID 0000.0001) debugMode =    F ; /* print debug msg. (sequence of S/R calls)  */
(PID.TID 0000.0001) printMapIncludesZeros=    F ; /* print zeros in Std.Output maps */
(PID.TID 0000.0001) maxLengthPrt1D=   65 /* maxLength of 1D array printed to StdOut */
(PID.TID 0000.0001) 
(PID.TID 0000.0001) // ======================================================
(PID.TID 0000.0001) // Mapping of tiles to threads
(PID.TID 0000.0001) // ======================================================
(PID.TID 0000.0001) // -o- Thread   1, tiles (   1:   6,   1:   1)
(PID.TID 0000.0001) 
(PID.TID 0000.0001) W2_READPARMS: file data.exch2 not found
(PID.TID 0000.0001) => use W2_EXCH2 default: regular 6-facets Cube
(PID.TID 0000.0001) W2_useE2ioLayOut=    T ;/* T: use Exch2 glob IO map; F: use model default */
(PID.TID 0000.0001) W2_mapIO        =  -1 ; /* select option for Exch2 global-IO map */
(PID.TID 0000.0001) W2_printMsg     =  -1 ; /* select option for printing information */
(PID.TID 0000.0001) ===== Start setting W2 TOPOLOGY:
(PID.TID 0000.0001)  write to log-file: w2_tile_topology.0000.log
(PID.TID 0000.0001) =====       setting W2 TOPOLOGY: Done
(PID.TID 0000.0001) 
(PID.TID 0000.0001)  INI_PARMS: opening model parameter file "data"
(PID.TID 0000.0001)  OPEN_COPY_DATA_FILE: opening file data
(PID.TID 0000.0001) // =======================================================
(PID.TID 0000.0001) // Parameter file "data"
(PID.TID 0000.0001) // =======================================================
(PID.TID 0000.0001) ># ====================
(PID.TID 0000.0001) ># | Model parameters |
(PID.TID 0000.0001) ># ====================
(PID.TID 0000.0001) >#
(PID.TID 0000.0001) ># Continuous equation parameters
(PID.TID 0000.0001) > &PARM01
(PID.TID 0000.0001) > tRef=289.6, 298.1, 314.5, 335.8, 437.4,
(PID.TID 0000.0001) > sRef=5*0.,
(PID.TID 0000.0001) > no_slip_sides=.FALSE.,
(PID.TID 0000.0001) > no_slip_bottom=.FALSE.,
(PID.TID 0000.0001) > buoyancyRelation='ATMOSPHERIC',
(PID.TID 0000.0001) > eosType='IDEALG',
(PID.TID 0000.0001) > atm_Rq=0.6078E-3,
(PID.TID 0000.0001) > Integr_GeoPot=2,
(PID.TID 0000.0001) > selectFindRoSurf=1,
(PID.TID 0000.0001) > gravity=9.81,
(PID.TID 0000.0001) > rhoConstFresh=1000.,
(PID.TID 0000.0001) > implicitFreeSurface=.TRUE.,
(PID.TID 0000.0001) > exactConserv=.TRUE.,
(PID.TID 0000.0001) > select_rStar=2,
(PID.TID 0000.0001) > nonlinFreeSurf=4,
(PID.TID 0000.0001) > hFacInf=0.2,
(PID.TID 0000.0001) > hFacSup=2.0,
(PID.TID 0000.0001) > uniformLin_PhiSurf=.FALSE.,
(PID.TID 0000.0001) > hFacMin=0.2,
(PID.TID 0000.0001) > saltAdvScheme=3,
(PID.TID 0000.0001) > vectorInvariantMomentum=.TRUE.,
(PID.TID 0000.0001) > useJamartWetPoints=.TRUE.,
(PID.TID 0000.0001) > staggerTimeStep=.TRUE.,
(PID.TID 0000.0001) > readBinaryPrec=64,
(PID.TID 0000.0001) > writeBinaryPrec=64,
(PID.TID 0000.0001) > /
(PID.TID 0000.0001) >
(PID.TID 0000.0001) ># Elliptic solver parameters
(PID.TID 0000.0001) > &PARM02
(PID.TID 0000.0001) > cg2dMaxIters=200,
(PID.TID 0000.0001) >#cg2dTargetResidual=1.E-12,
(PID.TID 0000.0001) > cg2dTargetResWunit=1.E-17,
(PID.TID 0000.0001) > /
(PID.TID 0000.0001) >
(PID.TID 0000.0001) ># Time stepping parameters
(PID.TID 0000.0001) > &PARM03
(PID.TID 0000.0001) > nIter0=69120,
(PID.TID 0000.0001) > nTimeSteps=10,
(PID.TID 0000.0001) ># 1yr, 10yr:
(PID.TID 0000.0001) >#endTime=31104000.,
(PID.TID 0000.0001) >#endTime=311040000.,
(PID.TID 0000.0001) > deltaT=450.0,
(PID.TID 0000.0001) > abEps=0.1,
(PID.TID 0000.0001) > forcing_In_AB=.FALSE.,
(PID.TID 0000.0001) > cAdjFreq=0.,
(PID.TID 0000.0001) > pChkptFreq=2592000.,
(PID.TID 0000.0001) > taveFreq=2592000.,
(PID.TID 0000.0001) > dumpFreq=7776000.,
(PID.TID 0000.0001) > monitorFreq=86400.,
(PID.TID 0000.0001) > monitorFreq=1.,
(PID.TID 0000.0001) > /
(PID.TID 0000.0001) >
(PID.TID 0000.0001) ># Gridding parameters
(PID.TID 0000.0001) > &PARM04
(PID.TID 0000.0001) > usingCurvilinearGrid=.TRUE.,
(PID.TID 0000.0001) > radius_fromHorizGrid=6370.E3,
(PID.TID 0000.0001) > delR=100.E2, 250.E2, 300.E2, 200.E2, 150.E2,
(PID.TID 0000.0001) > Ro_SeaLevel=1.E5,
(PID.TID 0000.0001) > /
(PID.TID 0000.0001) >
(PID.TID 0000.0001) ># Input datasets
(PID.TID 0000.0001) > &PARM05
(PID.TID 0000.0001) > topoFile='topo.2f2_FM.bin',
(PID.TID 0000.0001) > /
(PID.TID 0000.0001) 
(PID.TID 0000.0001)  INI_PARMS ; starts to read PARM01
(PID.TID 0000.0001)  INI_PARMS ; read PARM01 : OK
(PID.TID 0000.0001)  INI_PARMS ; starts to read PARM02
(PID.TID 0000.0001)  INI_PARMS ; read PARM02 : OK
(PID.TID 0000.0001)  INI_PARMS ; starts to read PARM03
(PID.TID 0000.0001)  INI_PARMS ; read PARM03 : OK
(PID.TID 0000.0001)  INI_PARMS ; starts to read PARM04
(PID.TID 0000.0001)  INI_PARMS ; read PARM04 : OK
(PID.TID 0000.0001)  INI_PARMS ; starts to read PARM05
(PID.TID 0000.0001)  INI_PARMS ; read PARM05 : OK
(PID.TID 0000.0001)  INI_PARMS: finished reading file "data"
(PID.TID 0000.0001)  PACKAGES_BOOT: opening data.pkg
(PID.TID 0000.0001)  OPEN_COPY_DATA_FILE: opening file data.pkg
(PID.TID 0000.0001) // =======================================================
(PID.TID 0000.0001) // Parameter file "data.pkg"
(PID.TID 0000.0001) // =======================================================
(PID.TID 0000.0001) ># Packages
(PID.TID 0000.0001) >#     useAIM  :: use Atmospheric Intermediate complexity Model
(PID.TID 0000.0001) >#     useLand :: use (simple) Land package to compute surf. BC over land
(PID.TID 0000.0001) > &PACKAGES
(PID.TID 0000.0001) > useAIM=.TRUE.,
(PID.TID 0000.0001) > useLand=.TRUE.,
(PID.TID 0000.0001) > useSHAP_FILT=.TRUE.,
(PID.TID 0000.0001) >#useDiagnostics=.TRUE.,
(PID.TID 0000.0001) >#useMNC=.TRUE.,
(PID.TID 0000.0001) > /
(PID.TID 0000.0001) 
(PID.TID 0000.0001)  PACKAGES_BOOT: finished reading data.pkg
(PID.TID 0000.0001)  PACKAGES_BOOT: On/Off package Summary
 --------  pkgs with a standard "usePKG" On/Off switch in "data.pkg":  --------
 pkg/shap_filt            compiled   and   used ( useSHAP_FILT             = T )
 pkg/thsice               compiled but not used ( useThSIce                = F )
 pkg/land                 compiled   and   used ( useLand                  = T )
 pkg/aim_v23              compiled   and   used ( useAIM                   = T )
 pkg/diagnostics          compiled but not used ( useDiagnostics           = F )
 pkg/mnc                  compiled but not used ( useMNC                   = F )
 -------- pkgs without standard "usePKG" On/Off switch in "data.pkg":  --------
 pkg/generic_advdiff      compiled   and   used ( useGAD                   = T )
 pkg/mom_common           compiled   and   used ( momStepping              = T )
 pkg/mom_vecinv           compiled   and   used ( +vectorInvariantMomentum = T )
 pkg/monitor              compiled   and   used ( monitorFreq > 0.         = T )
 pkg/timeave              compiled   and   used ( taveFreq > 0.            = T )
 pkg/debug                compiled but not used ( debugMode                = F )
 pkg/exch2                compiled   and   used
 pkg/rw                   compiled   and   used
 pkg/mdsio                compiled   and   used
 pkg/atm_common           compiled   ( used ? )
(PID.TID 0000.0001)  PACKAGES_BOOT: End of package Summary
(PID.TID 0000.0001) 
(PID.TID 0000.0001)  SHAP_FILT_READPARMS: opening data.shap
(PID.TID 0000.0001)  OPEN_COPY_DATA_FILE: opening file data.shap
(PID.TID 0000.0001) // =======================================================
(PID.TID 0000.0001) // Parameter file "data.shap"
(PID.TID 0000.0001) // =======================================================
(PID.TID 0000.0001) ># Shapiro Filter parameters
(PID.TID 0000.0001) > &SHAP_PARM01
(PID.TID 0000.0001) > shap_filt_uvStar=.FALSE.,
(PID.TID 0000.0001) > shap_filt_TrStagg=.TRUE.,
(PID.TID 0000.0001) > Shap_funct=2,
(PID.TID 0000.0001) > nShapT=4,
(PID.TID 0000.0001) > nShapUV=4,
(PID.TID 0000.0001) > nShapTrPhys=0,
(PID.TID 0000.0001) > nShapUVPhys=0,
(PID.TID 0000.0001) >#Shap_TrLength=140000.,
(PID.TID 0000.0001) >#Shap_uvLength=140000.,
(PID.TID 0000.0001) > Shap_Trtau=5400.,
(PID.TID 0000.0001) > Shap_uvtau=1800.,
(PID.TID 0000.0001) >#Shap_diagFreq=2592000.,
(PID.TID 0000.0001) > /
(PID.TID 0000.0001) 
(PID.TID 0000.0001)  SHAP_FILT_READPARMS: finished reading data.shap
(PID.TID 0000.0001) Shap_funct =   /* select Shapiro filter function */
(PID.TID 0000.0001)                       2
(PID.TID 0000.0001)     ;
(PID.TID 0000.0001) nShapT =   /* power of Shapiro filter for Temperat */
(PID.TID 0000.0001)                       4
(PID.TID 0000.0001)     ;
(PID.TID 0000.0001) nShapS =   /* power of Shapiro filter for Salinity */
(PID.TID 0000.0001)                       4
(PID.TID 0000.0001)     ;
(PID.TID 0000.0001) nShapUV =   /* power of Shapiro filter for momentum */
(PID.TID 0000.0001)                       4
(PID.TID 0000.0001)     ;
(PID.TID 0000.0001) shap_filt_uvStar = /* apply filter before Press. Solver */
(PID.TID 0000.0001)                   F
(PID.TID 0000.0001)     ;
(PID.TID 0000.0001) shap_filt_TrStagg = /* filter T,S before calc PhiHyd (staggerTimeStep) */
(PID.TID 0000.0001)                   T
(PID.TID 0000.0001)     ;
(PID.TID 0000.0001) Shap_alwaysExchUV = /* always exch(U,V)    nShapUV times*/
(PID.TID 0000.0001)                   F
(PID.TID 0000.0001)     ;
(PID.TID 0000.0001) Shap_alwaysExchTr = /* always exch(Tracer) nShapTr times*/
(PID.TID 0000.0001)                   F
(PID.TID 0000.0001)     ;
(PID.TID 0000.0001) nShapTrPhys =   /* power of physical-space filter (Tracer) */
(PID.TID 0000.0001)                       0
(PID.TID 0000.0001)     ;
(PID.TID 0000.0001) nShapUVPhys =   /* power of physical-space filter (Momentum) */
(PID.TID 0000.0001)                       0
(PID.TID 0000.0001)     ;
(PID.TID 0000.0001) Shap_Trtau =   /* time scale of Shapiro filter (Tracer) */
(PID.TID 0000.0001)                 5.400000000000000E+03
(PID.TID 0000.0001)     ;
(PID.TID 0000.0001) Shap_TrLength =   /* Length scale of Shapiro filter (Tracer) */
(PID.TID 0000.0001)                 0.000000000000000E+00
(PID.TID 0000.0001)     ;
(PID.TID 0000.0001) Shap_uvtau =   /* time scale of Shapiro filter (Momentum) */
(PID.TID 0000.0001)                 1.800000000000000E+03
(PID.TID 0000.0001)     ;
(PID.TID 0000.0001) Shap_uvLength =   /* Length scale of Shapiro filter (Momentum) */
(PID.TID 0000.0001)                 0.000000000000000E+00
(PID.TID 0000.0001)     ;
(PID.TID 0000.0001) Shap_noSlip =  /* No-slip parameter (0=Free-slip ; 1=No-slip)*/
(PID.TID 0000.0001)                 0.000000000000000E+00
(PID.TID 0000.0001)     ;
(PID.TID 0000.0001) Shap_diagFreq =   /* Frequency^-1 for diagnostic output (s)*/
(PID.TID 0000.0001)                 0.000000000000000E+00
(PID.TID 0000.0001)     ;
(PID.TID 0000.0001) SET_PARMS: done
(PID.TID 0000.0001) Enter INI_VERTICAL_GRID: setInterFDr=    T ; setCenterDr=    F
(PID.TID 0000.0001) tile:   1 ; Read from file tile001.mitgrid
(PID.TID 0000.0001)   => xC yC dxF dyF rA xG yG dxV dyU rAz dxC dyC rAw rAs dxG dyG
(PID.TID 0000.0001) tile:   2 ; Read from file tile002.mitgrid
(PID.TID 0000.0001)   => xC yC dxF dyF rA xG yG dxV dyU rAz dxC dyC rAw rAs dxG dyG
(PID.TID 0000.0001) tile:   3 ; Read from file tile003.mitgrid
(PID.TID 0000.0001)   => xC yC dxF dyF rA xG yG dxV dyU rAz dxC dyC rAw rAs dxG dyG
(PID.TID 0000.0001) tile:   4 ; Read from file tile004.mitgrid
(PID.TID 0000.0001)   => xC yC dxF dyF rA xG yG dxV dyU rAz dxC dyC rAw rAs dxG dyG
(PID.TID 0000.0001) tile:   5 ; Read from file tile005.mitgrid
(PID.TID 0000.0001)   => xC yC dxF dyF rA xG yG dxV dyU rAz dxC dyC rAw rAs dxG dyG
(PID.TID 0000.0001) tile:   6 ; Read from file tile006.mitgrid
(PID.TID 0000.0001)   => xC yC dxF dyF rA xG yG dxV dyU rAz dxC dyC rAw rAs dxG dyG
(PID.TID 0000.0001) %MON XC_max                       =   1.7854351589505E+02
(PID.TID 0000.0001) %MON XC_min                       =  -1.7854351589505E+02
(PID.TID 0000.0001) %MON XC_mean                      =  -4.6999441375798E-15
(PID.TID 0000.0001) %MON XC_sd                        =   1.0355545336287E+02
(PID.TID 0000.0001) %MON XG_max                       =   1.8000000000000E+02
(PID.TID 0000.0001) %MON XG_min                       =  -1.7708797161002E+02
(PID.TID 0000.0001) %MON XG_mean                      =   1.8603515625000E+00
(PID.TID 0000.0001) %MON XG_sd                        =   1.0357130300504E+02
(PID.TID 0000.0001) %MON DXC_max                      =   3.2375185836900E+05
(PID.TID 0000.0001) %MON DXC_min                      =   1.1142031410131E+05
(PID.TID 0000.0001) %MON DXC_mean                     =   2.8605689051214E+05
(PID.TID 0000.0001) %MON DXC_sd                       =   3.4042087138252E+04
(PID.TID 0000.0001) %MON DXF_max                      =   3.2369947500827E+05
(PID.TID 0000.0001) %MON DXF_min                      =   1.2020820513318E+05
(PID.TID 0000.0001) %MON DXF_mean                     =   2.8605437324820E+05
(PID.TID 0000.0001) %MON DXF_sd                       =   3.4050524252539E+04
(PID.TID 0000.0001) %MON DXG_max                      =   3.2375195872773E+05
(PID.TID 0000.0001) %MON DXG_min                      =   1.0098378008791E+05
(PID.TID 0000.0001) %MON DXG_mean                     =   2.8603818508931E+05
(PID.TID 0000.0001) %MON DXG_sd                       =   3.4140406908005E+04
(PID.TID 0000.0001) %MON DXV_max                      =   3.2380418162750E+05
(PID.TID 0000.0001) %MON DXV_min                      =   8.0152299824136E+04
(PID.TID 0000.0001) %MON DXV_mean                     =   2.8603970633619E+05
(PID.TID 0000.0001) %MON DXV_sd                       =   3.4145142117723E+04
(PID.TID 0000.0001) %MON YC_max                       =   8.7940663871962E+01
(PID.TID 0000.0001) %MON YC_min                       =  -8.7940663871962E+01
(PID.TID 0000.0001) %MON YC_mean                      =   0.0000000000000E+00
(PID.TID 0000.0001) %MON YC_sd                        =   3.8676242969072E+01
(PID.TID 0000.0001) %MON YG_max                       =   9.0000000000000E+01
(PID.TID 0000.0001) %MON YG_min                       =  -9.0000000000000E+01
(PID.TID 0000.0001) %MON YG_mean                      =  -1.1842378929335E-15
(PID.TID 0000.0001) %MON YG_sd                        =   3.8676895860710E+01
(PID.TID 0000.0001) %MON DYC_max                      =   3.2375185836900E+05
(PID.TID 0000.0001) %MON DYC_min                      =   1.1142031410131E+05
(PID.TID 0000.0001) %MON DYC_mean                     =   2.8605689051214E+05
(PID.TID 0000.0001) %MON DYC_sd                       =   3.4042087138252E+04
(PID.TID 0000.0001) %MON DYF_max                      =   3.2369947500827E+05
(PID.TID 0000.0001) %MON DYF_min                      =   1.2020820513318E+05
(PID.TID 0000.0001) %MON DYF_mean                     =   2.8605437324820E+05
(PID.TID 0000.0001) %MON DYF_sd                       =   3.4050524252539E+04
(PID.TID 0000.0001) %MON DYG_max                      =   3.2375195872773E+05
(PID.TID 0000.0001) %MON DYG_min                      =   1.0098378008791E+05
(PID.TID 0000.0001) %MON DYG_mean                     =   2.8603818508931E+05
(PID.TID 0000.0001) %MON DYG_sd                       =   3.4140406908005E+04
(PID.TID 0000.0001) %MON DYU_max                      =   3.2380418162750E+05
(PID.TID 0000.0001) %MON DYU_min                      =   8.0152299824136E+04
(PID.TID 0000.0001) %MON DYU_mean                     =   2.8603970633619E+05
(PID.TID 0000.0001) %MON DYU_sd                       =   3.4145142117723E+04
(PID.TID 0000.0001) %MON RA_max                       =   1.0479260248419E+11
(PID.TID 0000.0001) %MON RA_min                       =   1.4019007022556E+10
(PID.TID 0000.0001) %MON RA_mean                      =   8.2992246709265E+10
(PID.TID 0000.0001) %MON RA_sd                        =   1.7509089299457E+10
(PID.TID 0000.0001) %MON RAW_max                      =   1.0480965274559E+11
(PID.TID 0000.0001) %MON RAW_min                      =   1.2166903467143E+10
(PID.TID 0000.0001) %MON RAW_mean                     =   8.2992246709235E+10
(PID.TID 0000.0001) %MON RAW_sd                       =   1.7481917919656E+10
(PID.TID 0000.0001) %MON RAS_max                      =   1.0480965274559E+11
(PID.TID 0000.0001) %MON RAS_min                      =   1.2166903467143E+10
(PID.TID 0000.0001) %MON RAS_mean                     =   8.2992246709235E+10
(PID.TID 0000.0001) %MON RAS_sd                       =   1.7481917919656E+10
(PID.TID 0000.0001) %MON RAZ_max                      =   1.0484349334619E+11
(PID.TID 0000.0001) %MON RAZ_min                      =   8.8317900612505E+09
(PID.TID 0000.0001) %MON RAZ_mean                     =   8.2992246709235E+10
(PID.TID 0000.0001) %MON RAZ_sd                       =   1.7482297311044E+10
(PID.TID 0000.0001) %MON AngleCS_max                  =   9.9999994756719E-01
(PID.TID 0000.0001) %MON AngleCS_min                  =  -9.9968286884824E-01
(PID.TID 0000.0001) %MON AngleCS_mean                 =   3.3078922539000E-01
(PID.TID 0000.0001) %MON AngleCS_sd                   =   6.2496278958502E-01
(PID.TID 0000.0001) %MON AngleSN_max                  =   9.9968286884824E-01
(PID.TID 0000.0001) %MON AngleSN_min                  =  -9.9999994756719E-01
(PID.TID 0000.0001) %MON AngleSN_mean                 =  -3.3078922539000E-01
(PID.TID 0000.0001) %MON AngleSN_sd                   =   6.2496278958502E-01
(PID.TID 0000.0001) 
(PID.TID 0000.0001) SET_REF_STATE: PhiRef/g [m] at level Center (integer)
(PID.TID 0000.0001)                      and at level Interface (half-int.) :
(PID.TID 0000.0001)  K=  0.5  ;  r=       100000.0  ;  phiRef/g=        0.000
(PID.TID 0000.0001)  K=  1.0  ;  r=        95000.0  ;  phiRef/g=      431.199
(PID.TID 0000.0001)  K=  1.5  ;  r=        90000.0  ;  phiRef/g=     1256.487
(PID.TID 0000.0001)  K=  2.0  ;  r=        77500.0  ;  phiRef/g=     2081.775
(PID.TID 0000.0001)  K=  2.5  ;  r=        65000.0  ;  phiRef/g=     3703.426
(PID.TID 0000.0001)  K=  3.0  ;  r=        50000.0  ;  phiRef/g=     5325.077
(PID.TID 0000.0001)  K=  3.5  ;  r=        35000.0  ;  phiRef/g=     7509.251
(PID.TID 0000.0001)  K=  4.0  ;  r=        25000.0  ;  phiRef/g=     9693.426
(PID.TID 0000.0001)  K=  4.5  ;  r=        15000.0  ;  phiRef/g=    12596.158
(PID.TID 0000.0001)  K=  5.0  ;  r=         7500.0  ;  phiRef/g=    15498.890
(PID.TID 0000.0001)  K=  5.5  ;  r=            0.0  ;  phiRef/g=    29638.981
(PID.TID 0000.0001)  MDS_READ_FIELD: opening global file: topo.2f2_FM.bin
(PID.TID 0000.0001) // =======================================================
(PID.TID 0000.0001) // Field Model R_low (ini_masks_etc)
(PID.TID 0000.0001) // CMIN =          1.000000000000000E+32
(PID.TID 0000.0001) // CMAX =         -1.000000000000000E+32
(PID.TID 0000.0001) // CINT =          0.000000000000000E+00
(PID.TID 0000.0001) // SYMBOLS (CMIN->CMAX): -abcdefghijklmnopqrstuvwxyz+
(PID.TID 0000.0001) //                  0.0: .
(PID.TID 0000.0001) // RANGE I (Lo:Hi:Step):(    -1:   194:     1)
(PID.TID 0000.0001) // RANGE J (Lo:Hi:Step):(    34:    -1:    -1)
(PID.TID 0000.0001) // RANGE K (Lo:Hi:Step):(   1:   1:   1)
(PID.TID 0000.0001) // =======================================================
(PID.TID 0000.0001) // =======================================================
(PID.TID 0000.0001) // END OF FIELD                                          =
(PID.TID 0000.0001) // =======================================================
(PID.TID 0000.0001) 
(PID.TID 0000.0001) // =======================================================
(PID.TID 0000.0001) // Field Model Ro_surf (ini_masks_etc)
(PID.TID 0000.0001) // CMIN =          4.905667583685931E+04
(PID.TID 0000.0001) // CMAX =          1.000000000000000E+05
(PID.TID 0000.0001) // CINT =          1.886789783820026E+03
(PID.TID 0000.0001) // SYMBOLS (CMIN->CMAX): -abcdefghijklmnopqrstuvwxyz+
(PID.TID 0000.0001) //                  0.0: .
(PID.TID 0000.0001) // RANGE I (Lo:Hi:Step):(    -1:   194:     1)
(PID.TID 0000.0001) // RANGE J (Lo:Hi:Step):(    34:    -1:    -1)
(PID.TID 0000.0001) // RANGE K (Lo:Hi:Step):(   1:   1:   1)
(PID.TID 0000.0001) // =======================================================
(PID.TID 0000.0001) K =   1
(PID.TID 0000.0001) //                I=8       I=18      I=28      I=34      I=44      I=54      I=64      I=70      I=80      I=90      I=96      I=106     I=116     I=126     I=132     I=142     I=152     I=162     I=168     I=178     I=188
(PID.TID 0000.0001) // |--J--|101234567|901234567|901234567|901234123|567890123|567890123|567890123|563456789|123456789|123456789|123456785|789012345|789012345|789012345|789078901|345678901|345678901|345678901|901234567|901234567|901234567|901234
(PID.TID 0000.0001) //     34 +++++++++++++++++zzxwwwwwy+++vnmnounnounny+zzzzzxxwwrnmmmqsuvvxxwy+++y+++++++++++++++zxxyzyxwtmlnnoy+++++++++++++++++++++++++++++++++++++++++++++++++++++++++++++++yxxwwxyy+++++++++++++++++++++++++++++++++++++++++++++
(PID.TID 0000.0001) //     33 +++++++++++++++++zwttvwwwyyywqstuuuouuuooy+yyzzyxwwqoomlmqtvutwyyy+++zzy++++++++++++zxxxyyyxwunmnopx+++++++++++++++++++++++++++++++++++++++++++++++++++++++++++++++zyxwwwwy+++++++++++++++++++++++++++++++++++++++++++++
(PID.TID 0000.0001) //     32 ++++++++++++++++zxwyyyywwyxsrtwxyxvoyxvonrywwzywommlmpppqtttsuyzzyy+yyyy++++++++++++yxxyyxxxxvqmnpqw+++++++++++++++++++++++++++++++++++++++++++++++++++++++++++++++zyxwwwwwy++++++++++++++++++++++++++++++++++++++++++++
(PID.TID 0000.0001) //     31 +++++++++++++++zwvy+++yyyyyxywxxyywqyywqnotsswwphglqttrnnqssswz++zy++yz++++++++++++zxxxyyxxyxwuporty+++++++++++++++++++++++++++++++++++++++++++++++++++++++++++++++zyyxwwwwwyy++++++++++++++++++++++++++++++++++++++++++
(PID.TID 0000.0001) //     30 ++++++++++++++++wy+++++++++++ywwxzyuxzyumnstsspmfdhmlhgfekosuxz++++++++++++++++++++zxxxyzyyyxwwsptx+++++++++++++++++++++++++++++++++++++++++++++++++++++++++++++zzzzyyxxwxxwwyz+++++++++++++++++++++++++++++++++++++++++
(PID.TID 0000.0001) //     29 ++++++++++++++++yywwxz+++++++ywwxyzxxyzxrnosspllkeabbaabdhmsvyzz++++++++++++++++++zxwwxzzzyyxxwtpsx+++++++++++++++++++++++++++++++++++++++++++++++++++++++++++++yyzzyxxxxxxxxxz+++++++++++++++++++++++++++++++++++++++++
(PID.TID 0000.0001) //     28 +++++++++++++++xsvwxxxyzzzzzywwwwxyzwxyzypnorqnrwnc--aaabelsvxyxz+++++++++++++++++zxxxxz++zyxxwvprx++++++++++++++++++++++++++++++++++++++++++++++++++++++++++++zyyzzyyxxyyyyyyzz++++++++++++++++++++++++++++++++++++++++
(PID.TID 0000.0001) //     27 ++++++++++++++yvvwxxxxxxzzzyxwwvvwxyvwxyzyuutrrwzwkdabccbenvwxxwy++++++++++++++++++zxxyz++zyxxxwstx++++++++++++++++++++++++++++++++++++++++++++++++++++++++++++ywyz+zyxxyzz++zzz++++++++++++++++++++++++++++++++++++++++
(PID.TID 0000.0001) //     26 +++++++++++++zyxxyxwwwwxyyxxyxyyvwwxvwwxzzy+yyyyyyxvnmmmhhnuwxxyy++++++++++++++++++++zyy++zyxxxwssy+++++++++++++++++++++++++++++++++++++++++++++++++++++++++++ywwx++zyyyxxxz++++z+++z+++++++++++++++++++++++++++++++++++
(PID.TID 0000.0001) //     25 +++++++++++++yyyyyxvuvwwwxwxyxy+vvwxvvwxzzxy+++zxxxyxywwqorwxyyy++++++++++++++++++++++xy+yyyxxxwssy+++++++++++++++++++++++++++++++++++++++++++++++++++++++++++ywvwz+zzzwmkmrwyyzz+++z+++++++++++++++++++++++++++++++++++
(PID.TID 0000.0001) //     24 +++++++++++++yyyyyxwwwwstwwxyxy+wswxwswxyzz++++zxxxxy+yxutvxz++++++++++++++++++++++x++xx+yyzyxxvst++++++++++++++++++++++++++++++++++++++++++++++++++++++++++++ywxz++zzukgfghkqvxzz++zz++++++++++++++++++++++++++++++++++
(PID.TID 0000.0001) //     23 +++++++++++++zyyyyxxwwxxwwwxxxwxypvwypvwxz++++++yxxy+++ywwwxz++++++++++++++++++++++oq++xxxzzyyxvsrx+++++++++++++++++++++++++++++++++++++++++++++z+++++++++++++trwy+++wherwyumhkrwxy+wxy++++++++++++++xwwx+++++++++++++++
(PID.TID 0000.0001) //     22 +++++++++++++zyyyyxyxxyyxwwwxxvrxuwyxuwy++++++++yxy+++++yxxwy++++++++++++++++++++++vlr++yxzzzzywuswx++++++++++++++++++++++++++++++++++++++++++++xyz+++++++++++wpqvy+xrht++++++xuuvwwuvwwy+++++++++++wlhhknww++++++++++++
(PID.TID 0000.0001) //     21 +++++++++++++yxxyyyyxxyyxwwwxxrnvw++vw+++++++++++yy++++++zyxy++++++++++++++++++++++vkknx+w++z++xuutwy+++++++++++++++++++++++++++++++++++++++++++xxxz++++++++++yywqsuopv++++++++++ywu+ywuwyz+++++++++pkhghkklw+++++++++++
(PID.TID 0000.0001) //     20 +++++++++++++yxxyyyxxwxxxwwxxxpmqvwxqvwx+++++++++yy++++++z+++++++++++++++++++++++++xkhknwt++++++wwwxz+++++++++++++++++++++++++++++++++++++++++++xxxxxz+++++++++++ywuw++++++++++++++x+++xx+++++x+++++okhhhhklr+++++++++++
(PID.TID 0000.0001) //     19 +++++++++++++zyyyyyyxwwwxwwxxwrnqwxyqwxy+++++++++++++++++y++++++++++++++z++++++++x++qlkmxx++++++xyyz++++++++++++++++++++++++++++++++++++++++++++yyxxwxz+++++++y++++++++++++++++++++++++++++++++ws++xqkhgghlow+++++++++++
(PID.TID 0000.0001) //     18 ++++++++++++++++++++zwwxxxxwwwutwxz+wxz+++++++++++++++++yyy+++yy++++++++wz++zz+++++++xrsy+++++++++++++++++++++++++++++++++++++++++++++++++++++++yyyyxxz+++++yy++++++++++++++++++++++++++++++++++xv+xqlhgfghkrx++++++++++
(PID.TID 0000.0001) //     17 +++++++++++++++++++++yxxyyxwturuy+++y++++++++++++++++++++yy++ywy++++++++vxzzzyy++++++++++++++++++yy+++++++++++++++++++++++++++++++++++++++++++++xxyzzyz++++zwy++++++++++++++++++++++++++++++++++xuwupkhgffghkq++++++++++
(PID.TID 0000.0001) //     16 +++++++++++++++++++++zxxxxxvrtqtz+++z++++++++++++++++++++yy++yy+y++++zyyywwzz++++++++++++++++++++xxy++++++++++++++++++++++++++++++++++++++++++++xxyyyzz++++yw+++++++++++++++++++++++++++++++++++xsonnkhhggghho++++++++++
(PID.TID 0000.0001) //     15 zzzyz+++++++++++++++++yxxxxvsusv++++++++++++++++++++++++++yz++++++++++yw+ytxy+zxwx++++++++++++++zwwx++++++++++++++++++++++++++++++++++++++++y+++yxxxxyz++++yy++++++++++++++++++++++++++++++++++++uoqsvkkhhhhkp++++++++++
(PID.TID 0000.0001) //     14 yyyxxy++++++++++++++++ywwwwvtttw+++++++++++++++++++++++++++++++++++++++y+ytwxzzxwwwx++++++++++++zxwx+++++++++++++++++++++++++++++++++++++++++yy+xxwwxxxyzyxvy++++++++++++++++++++++++++++++++++++woux+xmkhhklv++++++++++
(PID.TID 0000.0001) //     13 yxxxxy++++++++++++++++yvvvvutsux+++++++++++++++++++++++++++++++++++++++++yvwxz++zzyy++++++z++++zyxwxxx++++++++++++++++++++++++++++++++++++++++++wvuttvwwvqot++++++++++++++++++++++++++++++++++++++vwy++plkkkox++++++++++
(PID.TID 0000.0001) //     12 xwwwy+++++++++++++++++xsuvuuuuwxz+++z+++++++++++++++++++++++++++++++++++yywwxzzzzzyy++++++zz++yxwwvxxxx+++++++++++++++++++++++++++++++++++++++++uqnmlossqoqx+++++++++++++++++++++++++++++++++++++++++++qlkklw+++++++++++
(PID.TID 0000.0001) //     11 wwwwz+++++++++++++++++wtvvvvvvwy+++y+++y++++++++++++++++++++++++++zzzz++ywwwxyzzzzzz++z++zzyzywvtrvy++++++++++++++++++++++++++++++++++++++++++++pmmllnqpqw+++++++++++++++++++++++++++++++++++++++++++++qmmmqx+++++++++++
(PID.TID 0000.0001) //     10 wwwx++++++++++++++++++xuvwwvuwyz++xw++xw+++++++++++++++++++++++++zyyyyzzywwwxyzzzzzzzzy++zxxxywvtsx+++++++++++++++++++++++++++++++++++++++++++++onnnoquwy++++++++++++++++++++++++++++++++++++++++++++++xwwxx++++++++++++
(PID.TID 0000.0001) //      9 wwwy++++++++++++++++++ytuvwvvwz+++wy++wy+++++++++++++++++++++++zzzyxyyyyyyyyzzzzzzzzyxxzzywwxxyxxwx+++++++++++++++++++++++++++++++++++++++++++++rponrwyy++++++++++++++++++++++++++++++++++++++++++++++++++++++++++++++++
(PID.TID 0000.0001) //      8 wwyy+++++++++++++++++++tuvvvwy++++xy++xy++++++++++++++++++++++yxxyxxxxyyyxy++zzzzzzyxyz+zzwwxxyxxwwxyy++++++++++++++++++++++++++++++++++++++++++tqposxy+++++++++++++++++++++++++++++++++++++++++++++++++++++++++++++++++
(PID.TID 0000.0001) //      7 wy+++++++++++++++++++++wvvusuz++++y+++y+++++++++++++++++++++++yxxxxxxxyzxsy+zzzzzzzyyzzzzzxxxxwwwvvvxx+++++++++++++++++++++++++++++++++yxxxyy+y+ywxyy+++++++++++++++++++++++++++++++++++++++++++++++++++++++++++++++++++
(PID.TID 0000.0001) //      6 y++++++++++++++++++++++ywusqw+++++++++++++++++++++++++++++++++yxxxxxxxz+yrw+xwzzzzyxyzzzzzxxxwuuwwxwxx++z+++z+++++++++++++++++++++++++zyyyyxxyz+++++++++++++++++++++++++++++++++++++++++++++++++++++++++++++++++++++++++
(PID.TID 0000.0001) //      5 y++++++++++++++++++++++yvtrv++++++++++++++++++++++++++++++++++yxxyyyyyzzwtqvvpy++zyxzzzzzyxxxwsuwwxxxx+++y+++y++++++++++++++++++y++++yyxyzzzyy++++++++++++++++++++++++++++++++++++++++++++++++++++++++++++++++++++++++++
(PID.TID 0000.0001) //      4 ++++++++++++++++++++++++yyy+++++++++++++++++++++++++++++++++++yyyzzzzzzyxwsnnny++zyyyyzzywvtuvtvwwxxwx+++yy++yy++++++++++++++++yw++zxxyyzzzzzz++++++++++++++++++++++++++++++++++++++++++++++++++++++++++++++++++++++++++
(PID.TID 0000.0001) //      3 +++++++++++++++++++++++++++++++++++++++++++++++++++++++++++++++++++++zzyxxtmnvz+zzzyxxxxwqpnotsuvwyxwy+++yy++yy++++++++++++++++wvz++zyzzzzzyzz++++++++++++++++++++++++++++++++++++++++++++++++++++++++++++++++++++++++++
(PID.TID 0000.0001) //      2 ++++++++++++++++++++++++++++++++++++++++++++++++++++++++++++++++++++++zyyyunny+zzzzzxxwwrnmmmqsuvvxxwy+++yy++yy+++++++++++++++ywy+++zyyz+zyyy+++++++++++++++++++++++++++++++++++++++++++++++++++++++++++++++++++++++++++
(PID.TID 0000.0001) //      1 ++++++++++++++++++++++++++++++++++++++++++++++++++++++++++++++++++++++++yxuooy+yyzzyxwwqoomlmqtvutwyyy+++zyz+zyz++++++++++++++yy++++zyyyzzzzz+++++++++++++++++++++++++++++++++++++++++++++++++++++++++++y++++++yz+++++++
(PID.TID 0000.0001) //      0 ++++++++++++++++++++++++++++++++++++++++++++++++++++++++++++++++++++++++wvvonrywwzywommlmpppqtttsuyzzyy+yyyyyyyy++++++++++++++z++++zyyxxxyzz++++++++++++++++++++++++++++++++++++++++++++++++++++++++++++y+++++++yyzz+++z
(PID.TID 0000.0001) //     -1 ++++++++++++++++++++++++++++++++++++++++++++++++++++++++++++++++++++++++qowqnotsswwphglqttrnnqssswz++zy++yy++yy++++++++++++++++++++zyyxxxyz++++++++++++++++++++++++++++++++++++++++++++++++++++++++++++y+++++++yxyzzyz+y
(PID.TID 0000.0001) // =======================================================
(PID.TID 0000.0001) // END OF FIELD                                          =
(PID.TID 0000.0001) // =======================================================
(PID.TID 0000.0001) 
(PID.TID 0000.0001) // =======================================================
(PID.TID 0000.0001) // Field hFacC at iteration          0
(PID.TID 0000.0001) // CMIN =          2.000000000000000E-01
(PID.TID 0000.0001) // CMAX =          1.000000000000000E+00
(PID.TID 0000.0001) // CINT =          2.962962962962963E-02
(PID.TID 0000.0001) // SYMBOLS (CMIN->CMAX): -abcdefghijklmnopqrstuvwxyz+
(PID.TID 0000.0001) //                  0.0: .
(PID.TID 0000.0001) // RANGE I (Lo:Hi:Step):(    -1:   194:     1)
(PID.TID 0000.0001) // RANGE J (Lo:Hi:Step):(    34:    -1:    -1)
(PID.TID 0000.0001) // RANGE K (Lo:Hi:Step):(   1:   1:   1)
(PID.TID 0000.0001) // =======================================================
(PID.TID 0000.0001) K =   1
(PID.TID 0000.0001) //                I=8       I=18      I=28      I=34      I=44      I=54      I=64      I=70      I=80      I=90      I=96      I=106     I=116     I=126     I=132     I=142     I=152     I=162     I=168     I=178     I=188
(PID.TID 0000.0001) // |--J--|101234567|901234567|901234567|901234123|567890123|567890123|567890123|563456789|123456789|123456789|123456785|789012345|789012345|789012345|789078901|345678901|345678901|345678901|901234567|901234567|901234567|901234
(PID.TID 0000.0001) //     34 +++++++++++++++++xqe--bbap+++............k+vtutskgc-..........hj-k+++l+++++++++++++++shiorojd......k+++++++++++++++++++++++++++++++++++++++++++++++++++++++++++++++mgecdell+++++++++++++++++++++++++++++++++++++++++++++
(PID.TID 0000.0001) //     33 +++++++++++++++++sb...bacpkk-............k+pqvspec-...........elkk+++ssl++++++++++++uihknomid......e+++++++++++++++++++++++++++++++++++++++++++++++++++++++++++++++tnhdc--l+++++++++++++++++++++++++++++++++++++++++++++
(PID.TID 0000.0001) //     32 ++++++++++++++++reakkkkc-ke...bilg..lg....kaaro-..............kxrkl+mkkk++++++++++++mgillkije......d++++++++++++++++++++++++++++++++++++++++++++++++++++++++++++++ysnheba--l++++++++++++++++++++++++++++++++++++++++++++
(PID.TID 0000.0001) //     31 +++++++++++++++r-.k+++kkkmkfkdeipp-.pp-......db..............arx+sp++ku++++++++++++vkfilljikga.....k++++++++++++++++++++++++++++++++++++++++++++++++++++++++++++++yspmhbadcclm++++++++++++++++++++++++++++++++++++++++++
(PID.TID 0000.0001) //     30 +++++++++++++++xck+++++++++++k-citk.itk......................jux+++++++++++++++++++rhfipsnkmhc-...k+++++++++++++++++++++++++++++++++++++++++++++++++++++++++++++wuvrmlkgdhha-lu+++++++++++++++++++++++++++++++++++++++++
(PID.TID 0000.0001) //     29 ++++++++++++++++kkbaft+++++++l-bfmvkfmvk.....................ouwz+++++++++++++++++rkddirwtpoifa...k++++++++++++++++++++++++++++++++++++++++++++++++++++++++++++xqoutnjjgfijgfhr+++++++++++++++++++++++++++++++++++++++++
(PID.TID 0000.0001) //     28 +++++++++++++++e..-fhjmtuuvtl---bfnwbfnwl.......-............kkiq+++++++++++++++++rjeejt++uoigc...k++++++++++++++++++++++++++++++++++++++++++++++++++++++++++++ulovwolkjnpooqqrv++++++++++++++++++++++++++++++++++++++++
(PID.TID 0000.0001) //     27 ++++++++++++++l..egiifekstspjd-..beo.beotl.....bta..........bjhdl++++++++++++++++++rkint++xpige-..k++++++++++++++++++++++++++++++++++++++++++++++++++++++++++++ldmwytniiouwxxxvwz+++z+++++++++++++++++++++++++++++++++++
(PID.TID 0000.0001) //     26 +++++++++++++ukfimidbcdgkmiknill.-bj.-bjwsl+lllpmpe.........bfgll++++++++++++++++++++rmo++vpjiga..m+++++++++++++++++++++++++++++++++++++++++++++++++++++++++++m--iyzvnmnffiszxxxv+++v+++++++++++++++++++++++++++++++++++
(PID.TID 0000.0001) //     25 ++++++++++++xqmmonf...b-agcgnil+..bj..bjutgm++zvhhknhkc-...-illl++++++++++++++++++++++jn+qopkih-..o+++++++++++++++++++++++++++++++++++++++++++++++++++++++++++l-.euzwtr-....dlpus+++s+++++++++++++++++++++++++++++++++++
(PID.TID 0000.0001) //     24 ++++++++++++xplmnng--a-..achmil+-.-i-.-inus++++vighho+pe...hvy++++++++++++++++++++zj++jh+pqslih...++++++++++++++++++++++++++++++++++++++++++++++++++++++++++++lbkrxxxu.........isw++sw++++++++++++++++++++++++++++++++++
(PID.TID 0000.0001) //     23 ++++++++++++ysnmmlhf-bifdcbgijcfl..cl..cht++++++lgil+++ob-bgr++++++++++++++++++++++..++jjjrwpli...j+++++++++++++++++++++++++++++++++++++++++++++v+++++++++++++..-qyyxc...cl.....afm+afm++++++++++++++j-cj+++++++++++++++
(PID.TID 0000.0001) //     22 ++++++++++++ysonmmjkfhmnia-cfi..f.alf.al++++++++ofk+++++nigcl++++++++++++++++++++++...++qhrxrrna..aj++++++++++++++++++++++++++++++++++++++++++++kmu+++++++++++e...nxi...++++++e...-d..-dn+++++++++++a.....-d++++++++++++
(PID.TID 0000.0001) //     21 ++++++++++++yojkmnmlhjmmha-cfe...b++.b+++++++++++ll+++++yspjl++++++++++++++++++++++....j+b++v++j...am+++++++++++++++++++++++++++++++++++++++++++fgis++++++++++pl-......++++++++++ke.+ke.-lr+++++++++........-+++++++++++
(PID.TID 0000.0001) //     20 +++++++++++++lfhlnljecfiidbgie....af..af+++++++++lo++++++vxy+++++++++++++++++++++++e....-.++++++-ceju+++++++++++++++++++++++++++++++++++++++++++iihhjr+++++++++++l-.c++++++++++++++k+++kk+++++j+++++.........+++++++++++
(PID.TID 0000.0001) //     19 +++++++++++++ulkoqpqi--bfdcegd...-fm.-fm+++++++++++++++++q++++++++++++++r++++++++j++....jj++++++kmpu++++++++++++++++++++++++++++++++++++++++++++llkidfsz++++++l++++++++++++++++++++++++++++++++b.++j........a+++++++++++
(PID.TID 0000.0001) //     18 ++++++++++++++++++++tbbehgeb--..-kr+-kr+++++++++++++++++llo+++ll++++++++-r++vt+++++++j..l+++++++++++++++++++++++++++++++++++++++++++++++++++++++llnoihry++++ll++++++++++++++++++++++++++++++++++j.+j.........j++++++++++
(PID.TID 0000.0001) //     17 +++++++++++++++++++++lghlkh-....lx++lx+++++++++++++++++++lp++lal++++++++.esxrop++++++++++++++++++qo+++++++++++++++++++++++++++++++++++++++++++++jkorrqvz+++tcl++++++++++++++++++++++++++++++++++j.a...........++++++++++
(PID.TID 0000.0001) //     16 yy+++++++++++++++++++rhhkkg.....r+++r++++++++++++++++++++lly+pl+l++++rllkabqw++++++++++++++++++++fim++++++++++++++++++++++++++++++++++++++++++++iimoorwz+++n-+++++++++++++++++++++++++++++++++++j.............++++++++++
(PID.TID 0000.0001) //     15 sstmr+++++++++++++++++lfghe.....++++++++++++++++++++++++++ls++x+++++++l-+k.eqztfcj++++++++++++++sdbj++++++++++++++++++++++++++++++++++++++++o+++kjijkntx+++ll++++++++++++++++++++++++++++++++++++.............++++++++++
(PID.TID 0000.0001) //     14 pnnghl++++++++++++++++l--aa....a+++++++++++++++++++++++++++++++++++++++l+k.-kxwjccbj++++++++++++ufah+++++++++++++++++++++++++++++++++++++++++kl+geddeginsnf.l++++++++++++++++++++++++++++++++++++a..i+j.......++++++++++
(PID.TID 0000.0001) //     13 mhheio++++++++++++++++l........e+++++++++++++++++++++++++++++++++++++++++k.-guy+vsll++++++t+++yuqe-jjk++++++++++++++++++++++++++++++++++++++++++a.....--....++++++++++++++++++++++++++++++++++++++.cn++......j++++++++++
(PID.TID 0000.0001) //     12 hedcn+++++++++++++++++g.......-gt+++t+++++++++++++++++++++++++++++++zx++kkbbgsvwwuqp++++++tr+yogb-.jkkk+++++++++++++++++++++++++++++++++++++++++...........g+++++++++++++++++++++++++++++++++++++++++++.....a+++++++++++
(PID.TID 0000.0001) //     11 bbcdt+++++++++++++++++c.......al+++l+++l++++++++++++++++++++++++++stttx+kcabfqstuutuyzu+ywsqtna....n++++++++++++++++++++++++++++++++++++++++++++.........b+++++++++++++++++++++++++++++++++++++++++++++.....j+++++++++++
(PID.TID 0000.0001) //     10 aa-e++++++++++++++++++e..--..-kv++gd++gd+++++++++++++++++++++++++vkknpswk-cafqsrrttuusqxytiijkb...j+++++++++++++++++++++++++++++++++++++++++++++.......-l++++++++++++++++++++++++++++++++++++++++++++++j-ajj++++++++++++
(PID.TID 0000.0001) //      9 d--l++++++++++++++++++l...-..cu+++al++al+++++++++++++++++++++++vurlkkmoqmkpprtsrsuttmghtxnabejljh-j+++++++++++++++++++++++++++++++++++++++++++++.....-ll++++++++++++++++++++++++++++++++++++++++++++++++++++++++++++++++
(PID.TID 0000.0001) //      8 c-ll+++++++++++++++++++.....-oz+++fl++fl++++++++++++++++++++++ohilkihhmpkek+yvsstutqjnsxxrddfikie--koq++++++++++++++++++++++++++++++++++++++++++.....fq+++++++++++++++++++++++++++++++++++++++++++++++++++++++++++++++++
(PID.TID 0000.0001) //      7 cl+++++++++++++++++++++a.....s++++l+++l+++++++++++++++++++++++nggiigfhouf.k+wrvtstsnmuxwvshghgc--...ek+++++++++++++++++++++++++++++++++piffkk+k+kdekk+++++++++++++++++++++++++++++++++++++++++++++++++++++++++++++++++++
(PID.TID 0000.0001) //      6 l++++++++++++++++++++++l-...a+++++++++++++++++++++++++++++++++nhhiiggjtyk.-+k-swwumhowxwwtiihb..-bfafk++s+++s+++++++++++++++++++++++++sklnlifmt+++++++++++++++++++++++++++++++++++++++++++++++++++++++++++++++++++++++++
(PID.TID 0000.0001) //      5 m++++++++++++++++++++++n....++++++++++++++++++++++++++++++++++oijlnmnqvxd.....l+zuliquvxwqkhe-..-bjgge+++n+++n++++++++++++++++++l++++nmjottuqp++++++++++++++++++++++++++++++++++++++++++++++++++++++++++++++++++++++++++
(PID.TID 0000.0001) //      4 ++++++++++++++++++++++++kkk+++++++++++++++++++++++++++++++++++qmosuutttqeb....m++toooorul-......--jgck+++kk++kk++++++++++++++++l-++tjglpsuuvvu++++++++++++++++++++++++++++++++++++++++++++++++++++++++++++++++++++++++++
(PID.TID 0000.0001) //      3 ++++++++++++++++++++++++++++++++++++++++++++++++++++++++++++++++++++yvrnii....tyvtrqjhhh-........-kjak+++kk++kk++++++++++++++++-.r+xtprtvwtprw++++++++++++++++++++++++++++++++++++++++++++++++++++++++++++++++++++++++++
(PID.TID 0000.0001) //      2 +++++++++++++++++++++++++++++++++++++++++++++++++++++++++++++++++++++ysppl...k+vtutskgc-..........hj-k+++lk++lk+++++++++++++++l-l+++wqpuyxqnpx++++++++++++++++++++++++++++++++++++++++++++++++++++++++++++++++++++++++++
(PID.TID 0000.0001) //      1 +++++++++++++++++++++++++++++++++++++++++++++++++++++++++++++++++++++++xpg...k+pqvspec-...........elkk+++sku+sku++++++++++++++ll+++xsomotvtrs+++++++++++++++++++++++++++++++++++++++++++++++++++++++++++l++++++kt++++++y
(PID.TID 0000.0001) //      0 ++++++++++++++++++++++++++++++++++++++++++++++++++++++++++++++++++++++++-.....kaaro-..............kxrkl+mkkkmkkk++++++++++++++r+++xtpmhhjqtvy+++++++++++++++++++++++++++++++++++++++++++++++++++++++++++k+++++++mpuwx++s
(PID.TID 0000.0001) //     -1 ++++++++++++++++++++++++++++++++++++++++++++++++++++++++++++++++++++++++..-......db..............arx+sp++km++km+++++++++++++++++++ztnkhfgnty++y++++++++++++++++++++++++++++++++++++++++++++++++++++++++o+++++++kfqvrpsxp
(PID.TID 0000.0001) // =======================================================
(PID.TID 0000.0001) // END OF FIELD                                          =
(PID.TID 0000.0001) // =======================================================
(PID.TID 0000.0001) 
(PID.TID 0000.0001) // =======================================================
(PID.TID 0000.0001) // Field hFacW at iteration          0
(PID.TID 0000.0001) // CMIN =          2.000000000000000E-01
(PID.TID 0000.0001) // CMAX =          1.000000000000000E+00
(PID.TID 0000.0001) // CINT =          2.962962962962963E-02
(PID.TID 0000.0001) // SYMBOLS (CMIN->CMAX): -abcdefghijklmnopqrstuvwxyz+
(PID.TID 0000.0001) //                  0.0: .
(PID.TID 0000.0001) // RANGE I (Lo:Hi:Step):(    -1:   194:     1)
(PID.TID 0000.0001) // RANGE J (Lo:Hi:Step):(    34:    -1:    -1)
(PID.TID 0000.0001) // RANGE K (Lo:Hi:Step):(   1:   1:   1)
(PID.TID 0000.0001) // =======================================================
(PID.TID 0000.0001) K =   1
(PID.TID 0000.0001) //                I=8       I=18      I=28      I=34      I=44      I=54      I=64      I=70      I=80      I=90      I=96      I=106     I=116     I=126     I=132     I=142     I=152     I=162     I=168     I=178     I=188
(PID.TID 0000.0001) // |--J--|101234567|901234567|901234567|901234123|567890123|567890123|567890123|563456789|123456789|123456789|123456785|789012345|789012345|789012345|789078901|345678901|345678901|345678901|901234567|901234567|901234567|901234
(PID.TID 0000.0001) //     34 +++++++++++++++++xqe---baap++.............kvtttskgc-...........h--k++lk.+++++++++++++shhioojd.......k++++++.+++++++++++++++++++++++++++++++++++.+++++++++++++++++++mgeccdell+++++++.+++++++++++++++++++++++++++++++++++.
(PID.TID 0000.0001) //     33 +++++++++++++++++sb....aackk-.............kppqspec-............ekkk++skl++++++++++++uihhknmid.......e++++++++++++++++++++++++++++++++++++++++++++++++++++++++++++++tnhdc---l++++++++++++++++++++++++++++++++++++++++++++
(PID.TID 0000.0001) //     32 ++++++++++++++++reaakkkc--e....big..ig.....aaao-...............krkklmkkk++++++++++++mggilkiie.......d+++++++++++++++++++++++++++++++++++++++++++++++++++++++++++++ysnheba---l+++++++++++++++++++++++++++++++++++++++++++
(PID.TID 0000.0001) //     31 +++++++++++++++r-..k++kkkkkffddeip-.ip-.......b...............arxspp+kku+++++++++++vkffiljiiga......k+++++++++++++++++++++++++++++++++++++++++++++++++++++++++++++yspmhbaaccclm+++++++++++++++++++++++++++++++++++++++++
(PID.TID 0000.0001) //     30 +++++++++++++++xcck++++++++++k--cik.cik.......................jux++++++++++++++++++rhffipnkkhc-....k++++++++++++++++++++++++++++++++++++++++++++++++++++++++++++wuurmlkgddha--lu++++++++++++++++++++++++++++++++++++++++
(PID.TID 0000.0001) //     29 ++++++++++++++++kkbaaft++++++l--bfmkbfmk......................ouwz++++++++++++++++rkdddirtpoifa....k+++++++++++++++++++++++++++++++++++++++++++++++++++++++++++xqootnjjgffigffhr++++++++++++++++++++++++++++++++++++++++
(PID.TID 0000.0001) //     28 +++++++++++++++e...-fhjmtuutl----bfn-bfnl.....................kiiq++++++++++++++++rjeeejt+uoigc....k+++++++++++++++++++++++++++++++++++++++++++++++++++++++++++ullovolkjjnoooqqrv+++v+++++++++++++++++++++++++++++++++++
(PID.TID 0000.0001) //     27 ++++++++++++++l...egifeeksspjd-...be..beol......ba...........bhddl+++++++++++++++++rkiint+xpige-...k+++++++++++++++++++++++++++++++++++++++++++++++++++++++++++lddmwtniiiouwxxvvwz++wz++++++++++++++++++++++++++++++++++
(PID.TID 0000.0001) //     26 +++++++++++++ukffiidbbcdgkiikiil..-b..-bjsllllllmme..........bfgll+++++++++++++++++++rmmo+vpjiga...m++++++++++++++++++++++++++++++++++++++++++++++++++++++++++m---iyvnmmfffisxxxvv++vv++++++++++++++++++++++++++++++++++
(PID.TID 0000.0001) //     25 ++++++++++++xqmmmnf....--accgiil...b...bjtggm+zvhhhkhhc-....-illl+++++++++++++++++++++jjnqookih-...o++++++++++++++++++++++++++++++++++++++++++++++++++++++++++l-..euwtr-.....dlpss++ss++++++++++++++++++++++++++++++++++
(PID.TID 0000.0001) //     24 ++++++++++++xpllmng----...achiil-..--..-inss+++vigghhope....hvy+++++++++++++++++++zjj+jhhppqlih....+++++++++++++++++++++++++++++++++++++++++++++++++++++++++++lbbkrxxu..........isw+isw+++++++++++++++++++++++++++++++++
(PID.TID 0000.0001) //     23 ++++++++++++ysnmmlhf--bfdcbbgiccf...f...cht+++++lggil++ob--bgr+++++++++++++++++++++...+jjjjrpli....j++++++++++++++++++++++++++++++++++++++++++++rv++++++++++++...-qyxc....c......afm.afm+++++++++++++j--cj++++++++++++++
(PID.TID 0000.0001) //     22 ++++++++++++ysonmmjjffhmia--cf.....a...al+++++++offk++++nigccl+++++++++++++++++++++....+qhhrrrna...aj+++++++++++++++++++++++++++++++++++++++++++hkmu++++++++++e....ni....+++++e....-...-dn++++++++++a......-d+++++++++++
(PID.TID 0000.0001) //     21 ++++++++++++yojjkmmlhhjmha--ce....b+..b++++++++++lll++++yspjjl+++++++++++++++++++++.....jbb+vv+j....am++++++++++++++++++++++++++++++++++++++++++ffgis+++++++++pl-.......+++++++++ke.+ke..-lr++++++++.........-++++++++++
(PID.TID 0000.0001) //     20 +++++++++++++lffhlljeccfidbbge.....a...af++++++++llo+++++vvxy++++++++++++++++++++++e.......+++++--ceju++++++++++++++++++++++++++++++++++++++++++iihhhjr++++++++++l-..c+++++++++++++k+++kkk++++jj++++..........++++++++++
(PID.TID 0000.0001) //     19 +++++++++++++ulkkoppi---bdcced....-f..-fm++++++++++++++++qq+++++++++++++rr+++++++jj+.....jj+++++kkmpu+++++++++++++++++++++++++++++++++++++++++++llkiddfsz+++++ll+++++++++++++++++++++++++++++++b..+j.........a++++++++++
(PID.TID 0000.0001) //     18 w+++++++++++++++++++tbbbegeb--...-kr.-kr++++++++++++++++lllo++lll+++++++--r+vtt++++++j...l++++++++++++++++++++++++++++++++++++++++++++++++++++++lllnihhry+++lll+++++++++++++++++++++++++++++++++j..j..........j+++++++++
(PID.TID 0000.0001) //     17 u++++++++++++++++++++lgghkh-.....lx+.lx++++++++++++++++++llp+laal+++++++..esroop+++++++++++++++++qoo++++++++++++++++++++++++++++++++++++++++++++jjkorqqvz++tccl+++++++++++++++++++++++++++++++++j..............+++++++++
(PID.TID 0000.0001) //     16 vyy++++++++++++++++++rhhhkg......r++.r+++++++++++++++++++lllypllll+++rllkaabqw+++++++++++++++++++ffim+++++++++++++++++++++++++++++++++++++++++++iiimoorwz++n--++++++++++++++++++++++++++++++++++j..............+++++++++
(PID.TID 0000.0001) //     15 rssmmr++++++++++++++++lffge......+++.+++++++++++++++++++++lls+xx++++++l-+k..eqtfccj+++++++++++++sdbbj+++++++++++++++++++++++++++++++++++++++oo++kjiijkntx++lll+++++++++++++++++++++++++++++++++++..............+++++++++
(PID.TID 0000.0001) //     14 mnngghl+++++++++++++++l---a.....a+++a++++++++++++++++++++++++++++++++++l+k..-kwjccbbj+++++++++++ufaah++++++++++++++++++++++++++++++++++++++++kklgedddeginnf..l+++++++++++++++++++++++++++++++++++a...ij........+++++++++
(PID.TID 0000.0001) //     13 lhheeio+++++++++++++++l.........e+++e++++++++++++++++++++++++++++++++++++k..-guyvslll+++++tt++yuqe--jjk+++++++++++++++++++++++++++++++++++++++++a......-.....+++++++++++++++++++++++++++++++++++++..cn+.......j+++++++++
(PID.TID 0000.0001) //     12 hedccn++++++++++++++++g........-gt++gt++++++++++++++++++++++++++++++zxx+kkbbbgsvwuqpp+++++trryogb-..jkkk++++++++++++++++++++++++++++++++++++++++............g++++++++++++++++++++++++++++++++++++++++++......a++++++++++
(PID.TID 0000.0001) //     11 bbbcdt++++++++++++++++c........al++ll++ll+++++++++++++++++++++++++sstttxkcaabfqstuttuyuuywsqqna.....n+++++++++++++++++++++++++++++++++++++++++++..........b++++++++++++++++++++++++++++++++++++++++++++......j++++++++++
(PID.TID 0000.0001) //     10 aa--e+++++++++++++++++e...-...-kv+gdv+gdd++++++++++++++++++++++++vkkknpsk--aafqrrrttusqqxtiiijb....j++++++++++++++++++++++++++++++++++++++++++++........-l+++++++++++++++++++++++++++++++++++++++++++++j--ajj+++++++++++
(PID.TID 0000.0001) //      9 d---l+++++++++++++++++l.......cu++aa++aal++++++++++++++++++++++vurlkkkmomkkpprsrrsttmgghtnaabejjh--j++++++++++++++++++++++++++++++++++++++++++++......-ll+++++++++++++++++++++++++++++++++++++++++++++++++++++++++++++++
(PID.TID 0000.0001) //      8 c--ll++++++++++++++++++......-oz++ff++ffl+++++++++++++++++++++ohhikihhhmkeekyvsssttqjjnsxrdddfiie---koq+++++++++++++++++++++++++++++++++++++++++......fq++++++++++++++++++++++++++++++++++++++++++++++++++++++++++++++++
(PID.TID 0000.0001) //      7 acl++++++++++++++++++++a......s+++ll++ll++++++++++++++++++++++ngggigffhof..kwrrtsssnmmuwvshgggc--....ek++++++++++++++++++++++++++++++++pifffkkkkkddekk++++++++++++++++++++++++++++++++++++++++++++++++++++++++++++++++++
(PID.TID 0000.0001) //      6 -l+++++++++++++++++++++l-....a++++++++++++++++++++++++++++++++nhhhigggjtk..-k--swumhhowwwtiihb...-baafk+ss++ss++++++++++++++++++++++++skklliffmt++++++++++++++++++++++++++++++++++++++++++++++++++++++++++++++++++++++++
(PID.TID 0000.0001) //      5 lm+++++++++++++++++++++n.....+++++++++++++++++++++++++++++++++oiijlmmnqvd......lzuliiquvwqkhe-...-bggee++nn++nn+++++++++++++++++ll+++nmjjottqpp+++++++++++++++++++++++++++++++++++++++++++++++++++++++++++++++++++++++++
(PID.TID 0000.0001) //      4 u+++++++++++++++++++++++kkkk++++++++++++++++++++++++++++++++++qmmosutttq-b.....m+tooooorl-.......--gcck++kkk+kkk+++++++++++++++l--+tjgglpsuuvuu+++++++++++++++++++++++++++++++++++++++++++++++++++++++++++++++++++++++++
(PID.TID 0000.0001) //      3 ++++++++++++++++++++++++++++++++++++++++++++++++++++++++++++++++++++yvrnci.....tvtrqjhhh-.........-jaak++kkk+kkk+++++++++++++++-..rxtpprtvtpprw+++++++++++++++++++++++++++++++++++++++++++++++++++++++++++++++++++++++++
(PID.TID 0000.0001) //      2 +++++++++++++++++++++++++++++++++++++++++++++++++++++++++++++++++++++yspil....kvtttskgc-...........h--k++lkk+lkk++++++++++++++l--l++wqppuxqnnpx+++++++++++++++++++++++++++++++++++++++++++++++++++++++++++++++++++++++++
(PID.TID 0000.0001) //      1 +++++++++++++++++++++++++++++++++++++++++++++++++++++++++++++++++++++++xpg....kppqspec-............ekkk++skk+skku+++++++++++++lll++xsommottrrs++++++++++++++++++++++++++++++++++++++++++++++++++++++++++ll+++++kkt+++++y
(PID.TID 0000.0001) //      0 ++++++++++++++++++++++++++++++++++++++++++++++++++++++++++++++++++++++++-......aaao-...............krkklmkkkmkkkk+++++++++++++rr++xtpmhhhjqtvy++++++++++++++++++++++++++++++++++++++++++++++++++++++++++kk++++++mmpuwx+s
(PID.TID 0000.0001) //     -1 ++++++++++++++++++++++++++++++++++++++++++++++++++++++++++++++++++++++xp..-.......b...............arxspp+kku+kmm++++++++++++++++++ztnkhffgnty++++++++++++++++++++++++++++++++++++++++++++++++++++++++++oo++++++kffqrppsy
(PID.TID 0000.0001) // =======================================================
(PID.TID 0000.0001) // END OF FIELD                                          =
(PID.TID 0000.0001) // =======================================================
(PID.TID 0000.0001) 
(PID.TID 0000.0001) // =======================================================
(PID.TID 0000.0001) // Field hFacS at iteration          0
(PID.TID 0000.0001) // CMIN =          2.000000000000000E-01
(PID.TID 0000.0001) // CMAX =          1.000000000000000E+00
(PID.TID 0000.0001) // CINT =          2.962962962962963E-02
(PID.TID 0000.0001) // SYMBOLS (CMIN->CMAX): -abcdefghijklmnopqrstuvwxyz+
(PID.TID 0000.0001) //                  0.0: .
(PID.TID 0000.0001) // RANGE I (Lo:Hi:Step):(    -1:   194:     1)
(PID.TID 0000.0001) // RANGE J (Lo:Hi:Step):(    34:    -1:    -1)
(PID.TID 0000.0001) // RANGE K (Lo:Hi:Step):(   1:   1:   1)
(PID.TID 0000.0001) // =======================================================
(PID.TID 0000.0001) K =   1
(PID.TID 0000.0001) //                I=8       I=18      I=28      I=34      I=44      I=54      I=64      I=70      I=80      I=90      I=96      I=106     I=116     I=126     I=132     I=142     I=152     I=162     I=168     I=178     I=188
(PID.TID 0000.0001) // |--J--|101234567|901234567|901234567|901234123|567890123|567890123|567890123|563456789|123456789|123456789|123456785|789012345|789012345|789012345|789078901|345678901|345678901|345678901|901234567|901234567|901234567|901234
(PID.TID 0000.0001) //     34 +++++++++++++++++sb...baapkk-........g...k+pquspec-...........ej-k+++lk.++++++++++++uihinomid......e+++++++.+++++++++++++++++++++++++++++++++++.+++++++++++++++++++mgecc--l++++++++.+++++++++++++++++++++++++++++++++++.
(PID.TID 0000.0001) //     33 ++++++++++++++++rea...ba-ke...............kaaro-..............elkkl+mkkk++++++++++++mghklkiid......d++++++++++++++++++++++++++++++++++++++++++++++++++++++++++++++ysnhdb---l++++++++++++++++++++++++++++++++++++++++++++
(PID.TID 0000.0001) //     32 +++++++++++++++r-.akkkkc-ke...bilg..lg.......db...............kxrkl+mkkk+++++++++++vkfilljije......d++++++++++++++++++++++++++++++++++++++++++++++++++++++++++++++ysnheba--clm++++++++++++++++++++++++++++++++++++++++++
(PID.TID 0000.0001) //     31 +++++++++++++++r-.k+++kkkmkfkd-cip-.ip-......................arx+sp++ku++++++++++++rhfilljikga.....k++++++++++++++++++++++++++++++++++++++++++++++++++++++++++++wuvrmlhbadca-lu+++++++++++++++++++++++++++++++++++++++++
(PID.TID 0000.0001) //     30 +++++++++++++++xckbaft+++++++k-bfmk.fmk......................juwz+++++++++++++++++rkddipsnkmhc-...k++++++++++++++++++++++++++++++++++++++++++++++++++++++++++++xqourmjjgdhha-hr+++++++++++++++++++++++++++++++++++++++++
(PID.TID 0000.0001) //     29 +++++++++++++++e..-afjmtuuvtl---bfnkbfnk.....................kkiq+++++++++++++++++rjddirwtpoifa...k++++++++++++++++++++++++++++++++++++++++++++++++++++++++++++uloutnjjgfijgfhrv++++++++++++++++++++++++++++++++++++++++
(PID.TID 0000.0001) //     28 ++++++++++++++l...-fhfekstspj--..beo.beol.......-............jhdl+++++++++++++++++rjeejt++uoigc...k++++++++++++++++++++++++++++++++++++++++++++++++++++++++++++ldmvwoliinpooqqrvz+++z+++++++++++++++++++++++++++++++++++
(PID.TID 0000.0001) //     27 +++++++++++++uk..egdbcdgkmikjd-..-bj.-bjtl.....bma..........bfgdl++++++++++++++++++rkimo++vpige-..k+++++++++++++++++++++++++++++++++++++++++++++++++++++++++++m--iwytniiffisxxvwv+++v+++++++++++++++++++++++++++++++++++
(PID.TID 0000.0001) //     26 ++++++++++++xqkfimf...b-agcgnill..bj..bjusgmlllphhe.........bfgll++++++++++++++++++++rjn+qopjig-..m+++++++++++++++++++++++++++++++++++++++++++++++++++++++++++l-.euzvnm-....dlpus+++s+++++++++++++++++++++++++++++++++++
(PID.TID 0000.0001) //     25 ++++++++++++xplmnnf...-..acgmil+..-i..-intgm++zvhghhhkc-...-illl++++++++++++++++++zj++jh+popkih...o+++++++++++++++++++++++++++++++++++++++++++++++++++++++++++l-.euxwt.........isw++sw++++++++++++++++++++++++++++++++++
(PID.TID 0000.0001) //     24 ++++++++++++xplmmlg--a-..abgiicf-..c-..chts++++vighho+pe...gry++++++++++++++++++++z..+jhjjqslih...j+++++++++++++++++++++++++++++++++++++++++++++v+++++++++++++..-qxxxc..........afm+afm++++++++++++++j-cj+++++++++++++++
(PID.TID 0000.0001) //     23 ++++++++++++ysnmmlhf-bifda-cfi..f..cf..cht++++++lfil+++ob-bcl++++++++++++++++++++++...+jjhrwpli...aj++++++++++++++++++++++++++++++++++++++++++++kmu+++++++++++....nxi....cl.......-d..-dn+++++++++++a.....-d++++++++++++
(PID.TID 0000.0001) //     22 ++++++++++++yojkmmjkfhmmha-cfe....al..al++++++++ofk+++++nigcl++++++++++++++++++++++....jqbrxrrna...am+++++++++++++++++++++++++++++++++++++++++++fgis++++++++++e.........++++++e...-...-.-lr+++++++++........-+++++++++++
(PID.TID 0000.0001) //     21 ++++++++++++ylfhlnljecfiha-cfe....af..af+++++++++ll+++++yspjl++++++++++++++++++++++.....-.++v++j...am+++++++++++++++++++++++++++++++++++++++++++fghhjr++++++++pl-......++++++++++ke.+ke.-lr+++j+++++.........+++++++++++
(PID.TID 0000.0001) //     20 +++++++++++++lfhlnlje--bfdbegd....af..af+++++++++lo++++++qxy++++++++++++r++++++++j+e....-.++++++-ceju+++++++++++++++++++++++++++++++++++++++++++iihhdfsz++++++l++l-.c++++++++++++++k+++kk+++++jb.++j.........+++++++++++
(PID.TID 0000.0001) //     19 +++++++++++++ulkoqpqi--bfdcb--...-fm.-fm++++++++++++++++llo+++ll++++++++-r++vt+++j++....jj++++++kmpu++++++++++++++++++++++++++++++++++++++++++++llkidfry++++lll++++++++++++++++++++++++++++++++b..+j.........j++++++++++
(PID.TID 0000.0001) //     18 ++++++++++++++++++++tbbehge-....-kr+-kr+++++++++++++++++llo++lal++++++++.esxrop++++++j..l++++++++qo+++++++++++++++++++++++++++++++++++++++++++++jknoihry+++tcl++++++++++++++++++++++++++++++++++j.a...........++++++++++
(PID.TID 0000.0001) //     17 yy+++++++++++++++++++lghkkg.....lx++lx+++++++++++++++++++lly+lall++++rll.abqrop++++++++++++++++++fim++++++++++++++++++++++++++++++++++++++++++++iimooqvz+++n-l++++++++++++++++++++++++++++++++++j.............++++++++++
(PID.TID 0000.0001) //     16 sstmr++++++++++++++++rhfghe.....r+++r++++++++++++++++++++lls+pl+l++++rl-ka.eqztfcj++++++++++++++sdbj++++++++++++++++++++++++++++++++++++++++o+++iiijkntx+++l-+++++++++++++++++++++++++++++++++++j.............++++++++++
(PID.TID 0000.0001) //     15 pnnghl++++++++++++++++l--aa.....++++++++++++++++++++++++++ls++x+++++++l-+k.-kxtfccbj++++++++++++sdah++++++++++++++++++++++++++++++++++++++++okl+geddeginsnf.l++++++++++++++++++++++++++++++++++++.............++++++++++
(PID.TID 0000.0001) //     14 mhhehl++++++++++++++++l........a+++++++++++++++++++++++++++++++++++++++l+k.-guwjccbj++++++t+++yuqe-hjk+++++++++++++++++++++++++++++++++++++++kl+a.....--....l++++++++++++++++++++++++++++++++++++a..i+j.......++++++++++
(PID.TID 0000.0001) //     13 hedcio++++++++++++++++g........et+++t+++++++++++++++++++++++++++++++zx++kk.-gsvwvsll++++++tr+yogb-.jjkk+++++++++++++++++++++++++++++++++++++++++............++++++++++++++++++++++++++++++++++++++.cn++......j++++++++++
(PID.TID 0000.0001) //     12 bbccn+++++++++++++++++c.......-gt++lt++l++++++++++++++++++++++++++stttx+kcabfqstuuqpyzu+ywsqtna....jkkk+++++++++++++++++++++++++++++++++++++++++...........g+++++++++++++++++++++++++++++++++++++++++++.....a+++++++++++
(PID.TID 0000.0001) //     11 aa-dt+++++++++++++++++c.......al++gd++gd+++++++++++++++++++++++++vkknpswk-aafqsrrttuusqxytiijka....n++++++++++++++++++++++++++++++++++++++++++++.........b+++++++++++++++++++++++++++++++++++++++++++++.....j+++++++++++
(PID.TID 0000.0001) //     10 a--e++++++++++++++++++e...-..-kv++ad++ad+++++++++++++++++++++++vurkkkmoqk-cafqsrrtttmghtxnabejb...j+++++++++++++++++++++++++++++++++++++++++++++.......-l++++++++++++++++++++++++++++++++++++++++++++++j-ajj++++++++++++
(PID.TID 0000.0001) //      9 c--l++++++++++++++++++l......cu+++al++al++++++++++++++++++++++ohilkihhmpkekprtsrsutqjghtxnabeikie--koq++++++++++++++++++++++++++++++++++++++++++.....-ll++++++++++++++++++++++++++++++++++++++++++++++++++++++++++++++++
(PID.TID 0000.0001) //      8 c-ll+++++++++++++++++++......oz+++fl++fl++++++++++++++++++++++nggiigfhmpf.k+wrssstsnjnswvrddfgc--...ek+++++++++++++++++++++++++++++++++piffkk+k+.....fq+++++++++++++++++++++++++++++++++++++++++++++++++++++++++++++++++
(PID.TID 0000.0001) //      7 cl+++++++++++++++++++++a.....s++++l+++l+++++++++++++++++++++++nggiigfhouf.-+k-ststmhmuxwvshghb..-...ek++s+++s+++++++++++++++++++++++++skiffifmk+kdekk+++++++++++++++++++++++++++++++++++++++++++++++++++++++++++++++++++
(PID.TID 0000.0001) //      6 l++++++++++++++++++++++l....a+++++++++++++++++++++++++++++++++nhhiiggjtxd.....lwwulhouvwwqihe-..-bfafe++sn++sn++++++++++++++++++l++++nmjlnlifmt+++++++++++++++++++++++++++++++++++++++++++++++++++++++++++++++++++++++++
(PID.TID 0000.0001) //      5 m++++++++++++++++++++++n....++++++++++++++++++++++++++++++++++oijlnmnqtqd.....l+ztlioorul-......--jgce+++kk++kk++++++++++++++++l-++tjgljottuqp++++++++++++++++++++++++++++++++++++++++++++++++++++++++++++++++++++++++++
(PID.TID 0000.0001) //      4 ++++++++++++++++++++++++kkk+++++++++++++++++++++++++++++++++++qmosuuttrneb....myvtoojhhh-........-jgak+++kk++kk++++++++++++++++-.r+tjglpsutpru++++++++++++++++++++++++++++++++++++++++++++++++++++++++++++++++++++++++++
(PID.TID 0000.0001) //      3 ++++++++++++++++++++++++++++++++++++++++++++++++++++++++++++++++++++yvrnii....tvttrqjgc-..........hj-k+++kk++kk+++++++++++++++l-.r+xtpptvwqnpw++++++++++++++++++++++++++++++++++++++++++++++++++++++++++++++++++++++++++
(PID.TID 0000.0001) //      2 +++++++++++++++++++++++++++++++++++++++++++++++++++++++++++++++++++++ysppg...k+pquspec-...........ej-k+++lku+lku++++++++++++++l-l++xsomotvqnpx++++++++++++++++++++++++++++++++++++++++++++++++++++++++++l++++++kt++++++y
(PID.TID 0000.0001) //      1 +++++++++++++++++++++++++++++++++++++++++++++++++++++++++++++++++++++++x-.....kaaro-..............elkkl+mkkkmkkk++++++++++++++ll++xtpmhhjqtrs+++++++++++++++++++++++++++++++++++++++++++++++++++++++++++k++++++kmpuwx++s
(PID.TID 0000.0001) //      0 ++++++++++++++++++++++++++++++++++++++++++++++++++++++++++++++++++++++xp.g.......db...............kxrkl+mkkkmskk++++++++++++++r+++xtnkhfgntvy++++++++++++++++++++++++++++++++++++++++++++++++++++++++++ok++++++kfpurpsy+
(PID.TID 0000.0001) //     -1 ++++++++++++++++++++++++++++++++++++++++++++++++++++++++++++++++++++++wpip-......................arx+sp++ku++km+++++++++++++++++++ztkkhfgmty+++++++++++++++++++++++++++++++++++++++++++++++++++++++++++o+++++++kfqvpnrvy
(PID.TID 0000.0001) // =======================================================
(PID.TID 0000.0001) // END OF FIELD                                          =
(PID.TID 0000.0001) // =======================================================
(PID.TID 0000.0001) 
(PID.TID 0000.0001) GAD_INIT_FIXED: GAD_OlMinSize=  2  0  1
(PID.TID 0000.0001) 
(PID.TID 0000.0001) // ===================================
(PID.TID 0000.0001) // GAD parameters :
(PID.TID 0000.0001) // ===================================
(PID.TID 0000.0001) tempAdvScheme =   /* Temp. Horiz.Advection scheme selector */
(PID.TID 0000.0001)                       2
(PID.TID 0000.0001)     ;
(PID.TID 0000.0001) tempVertAdvScheme =   /* Temp. Vert. Advection scheme selector */
(PID.TID 0000.0001)                       2
(PID.TID 0000.0001)     ;
(PID.TID 0000.0001) tempMultiDimAdvec =   /* use Muti-Dim Advec method for Temp */
(PID.TID 0000.0001)                   F
(PID.TID 0000.0001)     ;
(PID.TID 0000.0001) tempSOM_Advection = /* use 2nd Order Moment Advection for Temp */
(PID.TID 0000.0001)                   F
(PID.TID 0000.0001)     ;
(PID.TID 0000.0001) AdamsBashforthGt = /* apply Adams-Bashforth extrapolation on Gt */
(PID.TID 0000.0001)                   T
(PID.TID 0000.0001)     ;
(PID.TID 0000.0001) AdamsBashforth_T = /* apply Adams-Bashforth extrapolation on Temp */
(PID.TID 0000.0001)                   F
(PID.TID 0000.0001)     ;
(PID.TID 0000.0001) saltAdvScheme =   /* Salt. Horiz.advection scheme selector */
(PID.TID 0000.0001)                       3
(PID.TID 0000.0001)     ;
(PID.TID 0000.0001) saltVertAdvScheme =   /* Salt. Vert. Advection scheme selector */
(PID.TID 0000.0001)                       3
(PID.TID 0000.0001)     ;
(PID.TID 0000.0001) saltMultiDimAdvec =   /* use Muti-Dim Advec method for Salt */
(PID.TID 0000.0001)                   F
(PID.TID 0000.0001)     ;
(PID.TID 0000.0001) saltSOM_Advection = /* use 2nd Order Moment Advection for Salt */
(PID.TID 0000.0001)                   F
(PID.TID 0000.0001)     ;
(PID.TID 0000.0001) AdamsBashforthGs = /* apply Adams-Bashforth extrapolation on Gs */
(PID.TID 0000.0001)                   T
(PID.TID 0000.0001)     ;
(PID.TID 0000.0001) AdamsBashforth_S = /* apply Adams-Bashforth extrapolation on Salt */
(PID.TID 0000.0001)                   F
(PID.TID 0000.0001)     ;
(PID.TID 0000.0001) // ===================================
(PID.TID 0000.0001)  LAND_READPARMS: opening data.land
(PID.TID 0000.0001)  OPEN_COPY_DATA_FILE: opening file data.land
(PID.TID 0000.0001) // =======================================================
(PID.TID 0000.0001) // Parameter file "data.land"
(PID.TID 0000.0001) // =======================================================
(PID.TID 0000.0001) ># Land package parameters:
(PID.TID 0000.0001) >
(PID.TID 0000.0001) >#--  Land model parameter (namelist LAND_MODEL_PAR):
(PID.TID 0000.0001) >#     land_calc_grT  :: step forward ground Temperature
(PID.TID 0000.0001) >#     land_calc_grW  :: step forward soil moiture
(PID.TID 0000.0001) >#     land_impl_grT  :: solve ground Temperature implicitly
(PID.TID 0000.0001) >#     land_calc_snow :: step forward snow thickness
(PID.TID 0000.0001) >#     land_calc_alb  :: compute albedo of snow over land
(PID.TID 0000.0001) >#     land_oldPickup :: restart from an old pickup (=before checkpoint 52l_post)
(PID.TID 0000.0001) >#     land_grT_iniFile  :: File containing initial ground Temp.
(PID.TID 0000.0001) >#     land_grW_iniFile  :: File containing initial ground Water.
(PID.TID 0000.0001) >#     land_snow_iniFile :: File containing initial snow thickness.
(PID.TID 0000.0001) >#     land_deltaT   :: land model time-step
(PID.TID 0000.0001) >#     land_taveFreq :: Frequency^-1 for time-Aver. output (s)
(PID.TID 0000.0001) >#     land_diagFreq :: Frequency^-1 for diagnostic output (s)
(PID.TID 0000.0001) >#     land_monFreq  :: Frequency^-1 for monitor    output (s)
(PID.TID 0000.0001) >#     land_dzF      :: layer thickness
(PID.TID 0000.0001) > &LAND_MODEL_PAR
(PID.TID 0000.0001) ># land_calc_grT =.FALSE.,
(PID.TID 0000.0001) ># land_calc_grW =.FALSE.,
(PID.TID 0000.0001) ># land_impl_grT =.FALSE.,
(PID.TID 0000.0001) ># land_calc_snow=.FALSE.,
(PID.TID 0000.0001) ># land_calc_alb =.FALSE.,
(PID.TID 0000.0001) >  land_grT_iniFile='land_grT_ini.bin',
(PID.TID 0000.0001) >  land_grW_iniFile='land_grW_ini.bin',
(PID.TID 0000.0001) ># land_oldPickup=.TRUE.,
(PID.TID 0000.0001) >  land_dzF= 0.1, 4.0,
(PID.TID 0000.0001) ># land_diagFreq=1.,
(PID.TID 0000.0001) > /
(PID.TID 0000.0001) >
(PID.TID 0000.0001) >#--  Physical constants (namelist LAND_PHYS_PAR):
(PID.TID 0000.0001) >#     land_grdLambda  :: Thermal conductivity of the ground (W/m/K)
(PID.TID 0000.0001) >#     land_heatCs     :: Heat capacity of dry soil (J/m3/K)
(PID.TID 0000.0001) >#     land_CpWater    :: Heat capacity of water    (J/kg/K)
(PID.TID 0000.0001) >#     land_wTauDiff   :: soil moisture diffusion time scale
(PID.TID 0000.0001) >#     land_waterCap   :: field capacity per meter of soil
(PID.TID 0000.0001) >#     land_fractRunOff:: fraction of water in excess which run-off
(PID.TID 0000.0001) >#     land_rhoLiqW    :: density of liquid water (kg/m3)
(PID.TID 0000.0001) >#     land_rhoSnow    :: density of snow (kg/m3)
(PID.TID 0000.0001) >#     land_Lfreez     :: Latent heat of freezing (J/kg)
(PID.TID 0000.0001) >#     land_hMaxSnow   :: Maximum snow-thickness  (m)
(PID.TID 0000.0001) >#     diffKsnow       :: thermal conductivity of snow (W/m/K)
(PID.TID 0000.0001) >#     timeSnowAge     :: snow aging time scale   (s)
(PID.TID 0000.0001) >#     hNewSnowAge     :: new snow thickness that refresh the snow-age (by 1/e)
(PID.TID 0000.0001) >#     albColdSnow     :: albedo of cold (=dry) new snow (Tsfc < -10)
(PID.TID 0000.0001) >#     albWarmSnow     :: albedo of warm (=wet) new snow (Tsfc = 0)
(PID.TID 0000.0001) >#     albOldSnow      :: albedo of old snow (snowAge > 35.d)
(PID.TID 0000.0001) >#     hAlbSnow        :: snow thickness for albedo transition: snow/ground
(PID.TID 0000.0001) > &LAND_PHYS_PAR
(PID.TID 0000.0001) ># land_Lfreez=0.,
(PID.TID 0000.0001) > /
(PID.TID 0000.0001) 
(PID.TID 0000.0001)  LAND_READPARMS: finished reading data.land
(PID.TID 0000.0001) 
(PID.TID 0000.0001) // ===================================
(PID.TID 0000.0001) // Land package parameters :
(PID.TID 0000.0001) // ===================================
(PID.TID 0000.0001) land_calc_grT = /* step forward ground Temp. on/off flag */
(PID.TID 0000.0001)                   T
(PID.TID 0000.0001)     ;
(PID.TID 0000.0001) land_calc_grW = /* step forward soil moiture on/off flag */
(PID.TID 0000.0001)                   T
(PID.TID 0000.0001)     ;
(PID.TID 0000.0001) land_impl_grT = /* solve ground temperature implicitly */
(PID.TID 0000.0001)                   T
(PID.TID 0000.0001)     ;
(PID.TID 0000.0001) land_calc_snow = /* step forward snow thickness */
(PID.TID 0000.0001)                   T
(PID.TID 0000.0001)     ;
(PID.TID 0000.0001) land_calc_alb = /* compute land+snow albedo */
(PID.TID 0000.0001)                   T
(PID.TID 0000.0001)     ;
(PID.TID 0000.0001) land_grT_iniFile = /* Initial ground-Temp Input-File */
(PID.TID 0000.0001)                 land_grT_ini.bin
(PID.TID 0000.0001)     ;
(PID.TID 0000.0001) land_grW_iniFile = /* Initial soil-Water Input-File */
(PID.TID 0000.0001)                 land_grW_ini.bin
(PID.TID 0000.0001)     ;
(PID.TID 0000.0001) land_deltaT = /* land model Time-Step (s) */
(PID.TID 0000.0001)                 4.500000000000000E+02
(PID.TID 0000.0001)     ;
(PID.TID 0000.0001) land_taveFreq = /* Frequency^-1 for time-Aver. output (s) */
(PID.TID 0000.0001)                 2.592000000000000E+06
(PID.TID 0000.0001)     ;
(PID.TID 0000.0001) land_diagFreq = /* Frequency^-1 for diagnostic output (s) */
(PID.TID 0000.0001)                 7.776000000000000E+06
(PID.TID 0000.0001)     ;
(PID.TID 0000.0001) land_monFreq = /* Frequency^-1 for monitor output (s) */
(PID.TID 0000.0001)                 7.776000000000000E+06
(PID.TID 0000.0001)     ;
(PID.TID 0000.0001) land_dzF = /* layer thickness ( m ) */
(PID.TID 0000.0001)                 1.000000000000000E-01,      /* K =  1 */
(PID.TID 0000.0001)                 4.000000000000000E+00       /* K =  2 */
(PID.TID 0000.0001)     ;
(PID.TID 0000.0001) land_rec_dzC= /* recip. vertical spacing (m-1) */
(PID.TID 0000.0001)                 2.000000000000000E+01,      /* K =  1 */
(PID.TID 0000.0001)                 4.878048780487805E-01       /* K =  2 */
(PID.TID 0000.0001)     ;
(PID.TID 0000.0001) land_timeave_mdsio = /* use MDSIO for Tave output */
(PID.TID 0000.0001)                   T
(PID.TID 0000.0001)     ;
(PID.TID 0000.0001) land_timeave_mnc = /* use MNC for Tave output */
(PID.TID 0000.0001)                   F
(PID.TID 0000.0001)     ;
(PID.TID 0000.0001) land_snapshot_mdsio = /* use MDSIO for snapshot output */
(PID.TID 0000.0001)                   T
(PID.TID 0000.0001)     ;
(PID.TID 0000.0001) land_snapshot_mnc = /* use MNC for snapshot output */
(PID.TID 0000.0001)                   F
(PID.TID 0000.0001)     ;
(PID.TID 0000.0001) land_mon_stdio = /* use STDOUT for monitor output */
(PID.TID 0000.0001)                   T
(PID.TID 0000.0001)     ;
(PID.TID 0000.0001) land_mon_mnc = /* use MNC for monitor output */
(PID.TID 0000.0001)                   F
(PID.TID 0000.0001)     ;
(PID.TID 0000.0001) land_pickup_write_mnc = /* use MNC for writing pickups */
(PID.TID 0000.0001)                   F
(PID.TID 0000.0001)     ;
(PID.TID 0000.0001) land_pickup_read_mnc = /* use MNC for reading pickups */
(PID.TID 0000.0001)                   F
(PID.TID 0000.0001)     ;
(PID.TID 0000.0001) land_grdLambda = /* Thermal conductivity of the ground (W/m/K)*/
(PID.TID 0000.0001)                 4.200000000000000E-01
(PID.TID 0000.0001)     ;
(PID.TID 0000.0001) land_heatCs = /* Heat capacity of dry soil (J/m3/K) */
(PID.TID 0000.0001)                 1.130000000000000E+06
(PID.TID 0000.0001)     ;
(PID.TID 0000.0001) land_CpWater = /* Heat capacity of water    (J/kg/K) */
(PID.TID 0000.0001)                 4.200000000000000E+03
(PID.TID 0000.0001)     ;
(PID.TID 0000.0001) land_wTauDiff = /* soil moisture diffusion time scale (s) */
(PID.TID 0000.0001)                 1.728000000000000E+05
(PID.TID 0000.0001)     ;
(PID.TID 0000.0001) land_waterCap = /* field capacity per meter of soil (1) */
(PID.TID 0000.0001)                 2.400000000000000E-01
(PID.TID 0000.0001)     ;
(PID.TID 0000.0001) land_fractRunOff= /* fraction of water in excess which run-off */
(PID.TID 0000.0001)                 5.000000000000000E-01
(PID.TID 0000.0001)     ;
(PID.TID 0000.0001) land_rhoLiqW = /* density of liquid water (kg/m3) */
(PID.TID 0000.0001)                 1.000000000000000E+03
(PID.TID 0000.0001)     ;
(PID.TID 0000.0001) land_rhoSnow = /* density of snow (kg/m3) */
(PID.TID 0000.0001)                 3.300000000000000E+02
(PID.TID 0000.0001)     ;
(PID.TID 0000.0001) land_Lfreez = /* Latent heat of freezing (J/kg) */
(PID.TID 0000.0001)                 3.340000000000000E+05
(PID.TID 0000.0001)     ;
(PID.TID 0000.0001) land_hMaxSnow = /* maximum snow-thickness (m) */
(PID.TID 0000.0001)                 1.000000000000000E+03
(PID.TID 0000.0001)     ;
(PID.TID 0000.0001) diffKsnow = /* thermal conductivity of snow (W/m/K) */
(PID.TID 0000.0001)                 3.000000000000000E-01
(PID.TID 0000.0001)     ;
(PID.TID 0000.0001) timeSnowAge = /* snow aging time scale   (s) */
(PID.TID 0000.0001)                 4.320000000000000E+06
(PID.TID 0000.0001)     ;
(PID.TID 0000.0001) hNewSnowAge = /* new snow thickness to refresh snow-age by 1/e */
(PID.TID 0000.0001)                 2.000000000000000E-03
(PID.TID 0000.0001)     ;
(PID.TID 0000.0001) albColdSnow = /* albedo of cold (=dry) new snow */
(PID.TID 0000.0001)                 8.500000000000000E-01
(PID.TID 0000.0001)     ;
(PID.TID 0000.0001) albWarmSnow = /* albedo of warm (=wet) new snow */
(PID.TID 0000.0001)                 7.000000000000000E-01
(PID.TID 0000.0001)     ;
(PID.TID 0000.0001) tempSnowAlbL = /* Temp. transition from ColdSnow to WarmSnow Alb. (oC) */
(PID.TID 0000.0001)                -1.000000000000000E+01
(PID.TID 0000.0001)     ;
(PID.TID 0000.0001) albOldSnow = /* albedo of old snow (snowAge >35.d)*/
(PID.TID 0000.0001)                 5.500000000000000E-01
(PID.TID 0000.0001)     ;
(PID.TID 0000.0001) hAlbSnow = /* snow depth for albedo transition */
(PID.TID 0000.0001)                 3.000000000000000E-01
(PID.TID 0000.0001)     ;
- INPHYS: k,SIG, SIGH,   SIGL,   WVI(1),  WVI(2):
  1   0.0750   0.1500  -2.5903   0.8306   0.5757
  2   0.2500   0.3500  -1.3863   1.4427   0.4854
  3   0.5000   0.6500  -0.6931   2.2818   0.5987
  4   0.7750   0.9000  -0.2549   4.9116   0.7344
  5   0.9500   1.0000  -0.0513   0.0000   0.0377
- INPHYS: end setup WVI.
(PID.TID 0000.0001)  AIM_READ_PHYSPARMS: opening data.aimphys
(PID.TID 0000.0001)  OPEN_COPY_DATA_FILE: opening file data.aimphys
(PID.TID 0000.0001) // =======================================================
(PID.TID 0000.0001) // Parameter file "data.aimphys"
(PID.TID 0000.0001) // =======================================================
(PID.TID 0000.0001) ># AIM physics package parameters:
(PID.TID 0000.0001) >
(PID.TID 0000.0001) >C--   AIM interface parameter (namelist AIM_PARAMS):
(PID.TID 0000.0001) >#     aim_useFMsurfBC :: select surface B.C. from Franco Molteni
(PID.TID 0000.0001) >#     aim_useMMsurfFc :: select Monthly Mean surface forcing (e.g., NCEP)
(PID.TID 0000.0001) >#     aim_surfPotTemp :: surf.Temp input file is in Pot.Temp (aim_useMMsurfFc)
(PID.TID 0000.0001) >#     aim_energPrecip :: account for energy of precipitation (snow & rain temp)
(PID.TID 0000.0001) >#     aim_splitSIOsFx :: compute separately Sea-Ice & Ocean surf. Flux
(PID.TID 0000.0001) >#     aim_LandFile :: file name for Land fraction [0-1]
(PID.TID 0000.0001) >#     aim_MMsufx   :: sufix for all Monthly Mean surface forcing files
(PID.TID 0000.0001) >#     aim_MMsufxLength :: Length of sufix (Monthly Mean surf. forc. files)
(PID.TID 0000.0001) >#     aim_albFile  :: file name for Albedo input file   (F.M. surfBC)
(PID.TID 0000.0001) >#     aim_vegFile  :: file name for vegetation fraction (F.M. surfBC)
(PID.TID 0000.0001) >#     aim_sstFile  :: file name for  Sea.Surf.Temp      (F.M. surfBC)
(PID.TID 0000.0001) >#     aim_lstFile  :: file name for Land.Surf.Temp      (F.M. surfBC)
(PID.TID 0000.0001) >#     aim_oiceFile :: file name for Sea Ice fraction    (F.M. surfBC)
(PID.TID 0000.0001) >#     aim_snowFile :: file name for Snow depth          (F.M. surfBC)
(PID.TID 0000.0001) >#     aim_swcFile  :: file name for Soil Water content  (F.M. surfBC)
(PID.TID 0000.0001) >#     aim_dragStrato :: stratospheric-drag damping time scale (s)
(PID.TID 0000.0001) >#     aim_clrSkyDiag :: compute clear-sky radiation for diagnostics
(PID.TID 0000.0001) >#     aim_taveFreq :: Frequency^-1 for time-average output (s)
(PID.TID 0000.0001) >#     aim_diagFreq :: Frequency^-1 for diagnostic output (s)
(PID.TID 0000.0001) >#     aim_tendFreq :: Frequency^-1 for tendencies output (s)
(PID.TID 0000.0001) > &AIM_PARAMS
(PID.TID 0000.0001) >#  aim_useFMsurfBC=.FALSE.,
(PID.TID 0000.0001) >#  aim_useMMsurfFc=.TRUE.,
(PID.TID 0000.0001) >#  aim_surfPotTemp=.TRUE.,
(PID.TID 0000.0001) >   aim_energPrecip=.TRUE.,
(PID.TID 0000.0001) >   aim_splitSIOsFx=.TRUE.,
(PID.TID 0000.0001) >   aim_LandFile= 'landFrc.2f2.bin',
(PID.TID 0000.0001) >   aim_albFile = 'albedo.FM.bin',
(PID.TID 0000.0001) >   aim_vegFile = 'vegetFrc.FM.bin',
(PID.TID 0000.0001) >   aim_sstFile = 'seaSurfT.FM.bin',
(PID.TID 0000.0001) >   aim_lstFile = 'lndSurfT.2f2.bin',
(PID.TID 0000.0001) >   aim_oiceFile= 'seaIce.2f2.bin',
(PID.TID 0000.0001) >   aim_snowFile= 'snowDepth.FM.bin',
(PID.TID 0000.0001) >   aim_swcFile = 'soilMoist.FM.bin',
(PID.TID 0000.0001) >   aim_dragStrato= 2592000.,
(PID.TID 0000.0001) >#  aim_clrSkyDiag=.TRUE.,
(PID.TID 0000.0001) >#  aim_diagFreq=3600.,
(PID.TID 0000.0001) > /
(PID.TID 0000.0001) >
(PID.TID 0000.0001) >#--   Physical constants
(PID.TID 0000.0001) >#       P0    = reference pressure                 [Pa=N/m2]
(PID.TID 0000.0001) >#       GG    = gravity accel.                     [m/s2]
(PID.TID 0000.0001) >#       RD    = gas constant for dry air           [J/kg/K]
(PID.TID 0000.0001) >#       CP    = specific heat at constant pressure [J/kg/K]
(PID.TID 0000.0001) >#       ALHC  = latent heat of condensation        [J/g]
(PID.TID 0000.0001) >#       ALHF  = latent heat of freezing            [J/g]
(PID.TID 0000.0001) >#       SBC   = Stefan-Boltzmann constant
(PID.TID 0000.0001) >#     rainCP  = heat capacity of liquid water      [J/g/K]
(PID.TID 0000.0001) >#     tFreeze = freezing temperature of pure water [K]
(PID.TID 0000.0001) >
(PID.TID 0000.0001) >#--   Constants for forcing fields (namelist AIM_PAR_FOR):
(PID.TID 0000.0001) >#      SOLC   = Solar constant (area averaged) in W/m^2
(PID.TID 0000.0001) >#      ALBSEA = Albedo over sea
(PID.TID 0000.0001) >#      ALBICE = Albedo over sea ice (for ice fraction = 1)
(PID.TID 0000.0001) >#      ALBSN  = Albedo over snow (for snow depth > SDALB)
(PID.TID 0000.0001) >#      SDALB  = Snow depth (mm water) corresponding to maximum albedo
(PID.TID 0000.0001) >#      SWCAP  = Soil wetness at field capacity (volume fraction)
(PID.TID 0000.0001) >#      SWWIL  = Soil wetness at wilting point  (volume fraction)
(PID.TID 0000.0001) >#      hSnowWetness :: snow depth (m) corresponding to maximum wetness
(PID.TID 0000.0001) > &AIM_PAR_FOR
(PID.TID 0000.0001) > /
(PID.TID 0000.0001) >
(PID.TID 0000.0001) >#--   Constants for surface fluxes (namelist AIM_PAR_SFL):
(PID.TID 0000.0001) >#      FWIND0 = ratio of near-sfc wind to lowest-level wind
(PID.TID 0000.0001) >#      FTEMP0 = weight for near-sfc temperature extrapolation (0-1) :
(PID.TID 0000.0001) >#               1 : linear extrapolation from two lowest levels
(PID.TID 0000.0001) >#               0 : constant potential temperature ( = lowest level)
(PID.TID 0000.0001) >#      FHUM0  = weight for near-sfc specific humidity extrapolation (0-1) :
(PID.TID 0000.0001) >#               1 : extrap. with constant relative hum. ( = lowest level)
(PID.TID 0000.0001) >#               0 : constant specific hum. ( = lowest level)
(PID.TID 0000.0001) >#      CDL    = drag coefficient for momentum over land
(PID.TID 0000.0001) >#      CDS    = drag coefficient for momentum over sea
(PID.TID 0000.0001) >#      CHL    = heat exchange coefficient over land
(PID.TID 0000.0001) >#      CHS    = heat exchange coefficient over sea
(PID.TID 0000.0001) >#      VGUST  = wind speed for sub-grid-scale gusts
(PID.TID 0000.0001) >#      CTDAY  = daily-cycle correction (dTskin/dSSRad)
(PID.TID 0000.0001) >#      DTHETA = Potential temp. gradient for stability correction
(PID.TID 0000.0001) >#      dTstab = potential temp. increment for stability function derivative
(PID.TID 0000.0001) >#      FSTAB  = Amplitude of stability correction (fraction)
(PID.TID 0000.0001) >#      HDRAG  = Height scale for orographic correction
(PID.TID 0000.0001) >#      FHDRAG = Amplitude of orographic correction (fraction)
(PID.TID 0000.0001) > &AIM_PAR_SFL
(PID.TID 0000.0001) >#  FTEMP0 = 0.,
(PID.TID 0000.0001) >#  FHUM0  = 0.,
(PID.TID 0000.0001) > /
(PID.TID 0000.0001) >
(PID.TID 0000.0001) >#--   Convection constants (namelist AIM_PAR_CNV):
(PID.TID 0000.0001) >#      PSMIN  = minimum (norm.) sfc. pressure for the occurrence of convection
(PID.TID 0000.0001) >#      TRCNV  = time of relaxation (in hours) towards reference state
(PID.TID 0000.0001) >#      QBL    = specific hum. threshold in the boundary layer
(PID.TID 0000.0001) >#      RHBL   = relative hum. threshold in the boundary layer
(PID.TID 0000.0001) >#      RHIL   = rel. hum. threshold in intermed. layers for secondary mass flux
(PID.TID 0000.0001) >#      ENTMAX = max. entrainment as a fraction of cloud-base mass flux
(PID.TID 0000.0001) >#      SMF    = ratio between secondary and primary mass flux at cloud-base
(PID.TID 0000.0001) > &AIM_PAR_CNV
(PID.TID 0000.0001) > /
(PID.TID 0000.0001) >
(PID.TID 0000.0001) >#--   Constants for large-scale condensation (namelist AIM_PAR_LSC):
(PID.TID 0000.0001) >#      TRLSC  = Relaxation time (in hours) for specific humidity
(PID.TID 0000.0001) >#      RHLSC  = Maximum relative humidity threshold (at sigma=1)
(PID.TID 0000.0001) >#      DRHLSC = Vertical range of relative humidity threshold
(PID.TID 0000.0001) >#      QSMAX  = used to define the maximum latent heat release
(PID.TID 0000.0001) > &AIM_PAR_LSC
(PID.TID 0000.0001) > /
(PID.TID 0000.0001) >
(PID.TID 0000.0001) >#--   Radiation constants (namelist AIM_PAR_RAD):
(PID.TID 0000.0001) >#      RHCL1  = relative hum. corresponding to cloud cover = 0
(PID.TID 0000.0001) >#      RHCL2  = relative hum. corresponding to cloud cover = 1
(PID.TID 0000.0001) >#      QACL1  = specific hum. threshold for cloud cover in the upper troposphere
(PID.TID 0000.0001) >#      QACL2  = specific hum. threshold for cloud cover in the upper troposphere
(PID.TID 0000.0001) >#      ALBCL  = cloud albedo (for cloud cover = 1)
(PID.TID 0000.0001) >#      EPSSW  = fraction of incoming solar radiation absorbed by ozone
(PID.TID 0000.0001) >#      EPSLW  = fraction of surface LW radiation emitted directly to space
(PID.TID 0000.0001) >#      EMISFC = longwave surface emissivity
(PID.TID 0000.0001) >#--:            shortwave absorptivities (for dp = 10^5 Pa) :
(PID.TID 0000.0001) >#      ABSDRY = abs. of dry air      (visible band)
(PID.TID 0000.0001) >#      ABSAER = abs. of aerosols     (visible band)
(PID.TID 0000.0001) >#      ABSWV1 = abs. of water vapour (visible band, for dq = 1 g/kg)
(PID.TID 0000.0001) >#      ABSWV2 = abs. of water vapour (near IR band, for dq = 1 g/kg)
(PID.TID 0000.0001) >#      ABSCL1 = abs. of clouds       (visible band, constant term)
(PID.TID 0000.0001) >#      ABSCL2 = abs. of clouds       (visible band, for dw = 1 g/kg)
(PID.TID 0000.0001) >#--:            longwave absorptivities (per dp = 10^5 Pa) :
(PID.TID 0000.0001) >#      ABLWIN = abs. of air in "window" band
(PID.TID 0000.0001) >#      ABLCO2 = abs. of air in CO2 band
(PID.TID 0000.0001) >#      ABLWV1 = abs. of water vapour in H2O band 1 (weak),   for dq = 1 g/kg
(PID.TID 0000.0001) >#      ABLWV2 = abs. of water vapour in H2O band 2 (strong), for dq = 1 g/kg
(PID.TID 0000.0001) >#      ABLCL1 = abs. of clouds       in "window" band,       constant term
(PID.TID 0000.0001) >#      ABLCL2 = abs. of clouds       in "window" band,       for dw = 1 g/kg
(PID.TID 0000.0001) > &AIM_PAR_RAD
(PID.TID 0000.0001) > /
(PID.TID 0000.0001) >
(PID.TID 0000.0001) >#--   Constants for vertical dif. and sh. conv. (namelist AIM_PAR_VDI):
(PID.TID 0000.0001) >#      TRSHC  = relaxation time (in hours) for shallow convection
(PID.TID 0000.0001) >#      TRVDI  = relaxation time (in hours) for moisture diffusion
(PID.TID 0000.0001) >#      TRVDS  = relaxation time (in hours) for super-adiab. conditions
(PID.TID 0000.0001) >#      RHGRAD = maximum gradient of relative humidity (d_RH/d_sigma)
(PID.TID 0000.0001) >#      SEGRAD = minimum gradient of dry static energy (d_DSE/d_phi)
(PID.TID 0000.0001) > &AIM_PAR_VDI
(PID.TID 0000.0001) > /
(PID.TID 0000.0001) >
(PID.TID 0000.0001) 
(PID.TID 0000.0001)  AIM_READ_PHYSPARMS: finished reading data.aimphys
(PID.TID 0000.0001) 
(PID.TID 0000.0001) // ===================================
(PID.TID 0000.0001) // AIM physics parameters :
(PID.TID 0000.0001) // ===================================
(PID.TID 0000.0001) useLand =   /* use Land package for surf.BC over land  */
(PID.TID 0000.0001)                   T
(PID.TID 0000.0001)     ;
(PID.TID 0000.0001) aim_useFMsurfBC =   /* F.Molteni surf. BC scheme on/off flag */
(PID.TID 0000.0001)                   T
(PID.TID 0000.0001)     ;
(PID.TID 0000.0001) aim_useMMsurfFc =   /* Monthly Mean surf. Forcing on/off flag */
(PID.TID 0000.0001)                   F
(PID.TID 0000.0001)     ;
(PID.TID 0000.0001) aim_surfForc_TimePeriod = /* Length of forcing time period (s) */
(PID.TID 0000.0001)                 2.592000000000000E+06
(PID.TID 0000.0001)     ;
(PID.TID 0000.0001) aim_surfForc_NppCycle   = /* Number of time period per Cycle */
(PID.TID 0000.0001)                      12
(PID.TID 0000.0001)     ;
(PID.TID 0000.0001) aim_surfForc_TransRatio = /* transition ratio from one month to the next */
(PID.TID 0000.0001)                 1.000000000000000E+00
(PID.TID 0000.0001)     ;
(PID.TID 0000.0001) aim_surfPotTemp =   /* Surf Temp file in Pot.Temp on/off flag */
(PID.TID 0000.0001)                   F
(PID.TID 0000.0001)     ;
(PID.TID 0000.0001) aim_energPrecip = /* account for energy of precip. on/off flag */
(PID.TID 0000.0001)                   T
(PID.TID 0000.0001)     ;
(PID.TID 0000.0001) aim_splitSIOsFx = /* separate Sea-Ice & Ocean Flux on/off flag */
(PID.TID 0000.0001)                   T
(PID.TID 0000.0001)     ;
(PID.TID 0000.0001) aim_dragStrato= /* stratospheric-drag damping time scale (s) */
(PID.TID 0000.0001)                 2.592000000000000E+06
(PID.TID 0000.0001)     ;
(PID.TID 0000.0001) aim_clrSkyDiag = /* do clear-sky radiation diagnostics */
(PID.TID 0000.0001)                   F
(PID.TID 0000.0001)     ;
(PID.TID 0000.0001) aim_taveFreq =   /* Frequency^-1 for time-Aver. output (s) */
(PID.TID 0000.0001)                 2.592000000000000E+06
(PID.TID 0000.0001)     ;
(PID.TID 0000.0001) aim_diagFreq =   /* Frequency^-1 for diagnostic output (s) */
(PID.TID 0000.0001)                 7.776000000000000E+06
(PID.TID 0000.0001)     ;
(PID.TID 0000.0001) aim_tendFreq =   /* Frequency^-1 for tendencies output (s) */
(PID.TID 0000.0001)                 0.000000000000000E+00
(PID.TID 0000.0001)     ;
(PID.TID 0000.0001) aim_selectOceAlbedo =   /* Ocean albedo(latitude) flag */
(PID.TID 0000.0001)                       0
(PID.TID 0000.0001)     ;
(PID.TID 0000.0001) AIM_FOR:   SOLC =   /* Solar constant (area averaged) in W/m2 */
(PID.TID 0000.0001)                 3.420000000000000E+02
(PID.TID 0000.0001)     ;
(PID.TID 0000.0001) AIM_FOR:  OBLIQ =   /* Obliquity (degree) used with ALLOW_INSOLATION */
(PID.TID 0000.0001)                 2.345000000000000E+01
(PID.TID 0000.0001)     ;
(PID.TID 0000.0001) AIM_FOR: ALBSEA =   /* Albedo over sea [0-1]      */
(PID.TID 0000.0001)                 7.000000000000001E-02
(PID.TID 0000.0001)     ;
(PID.TID 0000.0001) AIM_FOR: ALBICE =   /* Albedo over sea ice (for ice fraction =1) */
(PID.TID 0000.0001)                 6.000000000000000E-01
(PID.TID 0000.0001)     ;
(PID.TID 0000.0001) AIM_FOR:  ALBSN =   /* Albedo over snow (for snow depth > SDALB) */
(PID.TID 0000.0001)                 6.000000000000000E-01
(PID.TID 0000.0001)     ;
(PID.TID 0000.0001) AIM_FOR:  SDALB =   /* Snow depth (mm H2O) corresp. maximum albedo */
(PID.TID 0000.0001)                 6.000000000000000E+01
(PID.TID 0000.0001)     ;
(PID.TID 0000.0001) AIM_FOR:  SWCAP =   /* Soil wetness at field capacity (Vol.fract.) */
(PID.TID 0000.0001)                 3.000000000000000E-01
(PID.TID 0000.0001)     ;
(PID.TID 0000.0001) AIM_FOR:  SWWIL =   /* Soil wetness at wilting point  (Vol.fract.) */
(PID.TID 0000.0001)                 1.700000000000000E-01
(PID.TID 0000.0001)     ;
(PID.TID 0000.0001) AIM_FOR: hSnowWetness=   /* snow depth corresp. maximum wetness (m) */
(PID.TID 0000.0001)                 1.000000000000000E-02
(PID.TID 0000.0001)     ;
(PID.TID 0000.0001) AIM_SFL: FWIND0 =   /* ratio of near-sfc wind to lowest-level wind */
(PID.TID 0000.0001)                 6.000000000000000E-01
(PID.TID 0000.0001)     ;
(PID.TID 0000.0001) AIM_SFL: FTEMP0 =  /* weight for near-sfc temp. extrapolation (0-1)*/
(PID.TID 0000.0001)                 1.000000000000000E+00
(PID.TID 0000.0001)     ;
(PID.TID 0000.0001) AIM_SFL:  FHUM0 =  /* weight for near-sfc spec.humid. extrap. (0-1)*/
(PID.TID 0000.0001)                 1.000000000000000E+00
(PID.TID 0000.0001)     ;
(PID.TID 0000.0001) AIM_SFL:    CDL =   /* drag coefficient for momentum over land */
(PID.TID 0000.0001)                 1.800000000000000E-03
(PID.TID 0000.0001)     ;
(PID.TID 0000.0001) AIM_SFL:    CDS =   /* drag coefficient for momentum over sea  */
(PID.TID 0000.0001)                 8.000000000000000E-04
(PID.TID 0000.0001)     ;
(PID.TID 0000.0001) AIM_SFL:    CHL =   /* heat exchange coefficient over land */
(PID.TID 0000.0001)                 1.200000000000000E-03
(PID.TID 0000.0001)     ;
(PID.TID 0000.0001) AIM_SFL:    CHS =   /* heat exchange coefficient over sea  */
(PID.TID 0000.0001)                 8.000000000000000E-04
(PID.TID 0000.0001)     ;
(PID.TID 0000.0001) AIM_SFL:  VGUST =   /* wind speed [m/s] for sub-grid-scale gusts */
(PID.TID 0000.0001)                 5.000000000000000E+00
(PID.TID 0000.0001)     ;
(PID.TID 0000.0001) AIM_SFL:  CTDAY =   /* daily-cycle correction (dTskin/dSSRad) */
(PID.TID 0000.0001)                 1.000000000000000E-02
(PID.TID 0000.0001)     ;
(PID.TID 0000.0001) AIM_SFL: DTHETA =   /* Pot.Temp. gradient for stability correction */
(PID.TID 0000.0001)                 3.000000000000000E+00
(PID.TID 0000.0001)     ;
(PID.TID 0000.0001) AIM_SFL: dTstab =   /* Pot.Temp. increment for stab.funct. derivative */
(PID.TID 0000.0001)                 1.000000000000000E+00
(PID.TID 0000.0001)     ;
(PID.TID 0000.0001) AIM_SFL:  FSTAB =   /* Amplitude of stability correction (fract.) */
(PID.TID 0000.0001)                 6.700000000000000E-01
(PID.TID 0000.0001)     ;
(PID.TID 0000.0001) AIM_SFL:  HDRAG =   /* Height scale for orographic correction */
(PID.TID 0000.0001)                 2.000000000000000E+03
(PID.TID 0000.0001)     ;
(PID.TID 0000.0001) AIM_SFL: FHDRAG =   /* Amplitude of orographic correction (fract.)*/
(PID.TID 0000.0001)                 8.000000000000000E-01
(PID.TID 0000.0001)     ;
(PID.TID 0000.0001) AIM_CNV:  PSMIN =   /* min norm.sfc.P. for occurrence of convect. */
(PID.TID 0000.0001)                 7.000000000000000E-01
(PID.TID 0000.0001)     ;
(PID.TID 0000.0001) AIM_CNV:  TRCNV =   /* time of relaxation [h] towards ref state */
(PID.TID 0000.0001)                 6.000000000000000E+00
(PID.TID 0000.0001)     ;
(PID.TID 0000.0001) AIM_CNV:    QBL =   /* specific hum. threshold in the Bound.layer */
(PID.TID 0000.0001)                 1.500000000000000E+01
(PID.TID 0000.0001)     ;
(PID.TID 0000.0001) AIM_CNV:   RHBL =   /* relative hum. threshold in the Bound.layer */
(PID.TID 0000.0001)                 8.000000000000000E-01
(PID.TID 0000.0001)     ;
(PID.TID 0000.0001) AIM_CNV:   RHIL =   /* rel.hum. threshold (intern) for 2nd mass.Flx*/
(PID.TID 0000.0001)                 7.000000000000000E-01
(PID.TID 0000.0001)     ;
(PID.TID 0000.0001) AIM_CNV: ENTMAX =   /* time of relaxation [h] towards neutral eq. */
(PID.TID 0000.0001)                 5.000000000000000E-01
(PID.TID 0000.0001)     ;
(PID.TID 0000.0001) AIM_CNV:    SMF =   /* ratio 2ndary/primary mass.Flx at cloud-base*/
(PID.TID 0000.0001)                 5.000000000000000E-01
(PID.TID 0000.0001)     ;
(PID.TID 0000.0001) AIM_LSC:  TRLSC =   /* relaxation time [h] for supersat. spec.hum. */
(PID.TID 0000.0001)                 4.000000000000000E+00
(PID.TID 0000.0001)     ;
(PID.TID 0000.0001) AIM_LSC:  RHLSC =   /* Max rel.humidity threshold (at sigma=1) */
(PID.TID 0000.0001)                 9.000000000000000E-01
(PID.TID 0000.0001)     ;
(PID.TID 0000.0001) AIM_LSC: DRHLSC =   /* Vertical range of rel.humidity threshold */
(PID.TID 0000.0001)                 1.000000000000000E-01
(PID.TID 0000.0001)     ;
(PID.TID 0000.0001) AIM_LSC:  QSMAX =   /* Define the maximum latent heat release */
(PID.TID 0000.0001)                 5.000000000000000E+01
(PID.TID 0000.0001)     ;
(PID.TID 0000.0001) AIM_RAD:  RHCL1 =   /*  rel.hum. corresponding to cloud cover = 0 */
(PID.TID 0000.0001)                 4.500000000000000E-01
(PID.TID 0000.0001)     ;
(PID.TID 0000.0001) AIM_RAD:  RHCL2 =   /*  rel.hum. corresponding to cloud cover = 1 */
(PID.TID 0000.0001)                 8.500000000000000E-01
(PID.TID 0000.0001)     ;
(PID.TID 0000.0001) AIM_RAD:  QACL1 =   /* spec.hum. threshold for cloud, upper trop. */
(PID.TID 0000.0001)                 1.000000000000000E-01
(PID.TID 0000.0001)     ;
(PID.TID 0000.0001) AIM_RAD:  QACL2 =   /* spec.hum. threshold for cloud, upper trop. */
(PID.TID 0000.0001)                 1.000000000000000E+00
(PID.TID 0000.0001)     ;
(PID.TID 0000.0001) AIM_RAD:  ALBCL =   /*  cloud albedo (for cloud cover = 1) */
(PID.TID 0000.0001)                 4.000000000000000E-01
(PID.TID 0000.0001)     ;
(PID.TID 0000.0001) AIM_RAD:  EPSSW =   /*  fract. of inc.solar rad. absorbed by ozone */
(PID.TID 0000.0001)                 1.500000000000000E-02
(PID.TID 0000.0001)     ;
(PID.TID 0000.0001) AIM_RAD:  EPSLW =   /*  fract. of sfc LW emitted directly to space */
(PID.TID 0000.0001)                 0.000000000000000E+00
(PID.TID 0000.0001)     ;
(PID.TID 0000.0001) AIM_RAD: EMISFC =   /*  longwave surface emissivity */
(PID.TID 0000.0001)                 9.800000000000000E-01
(PID.TID 0000.0001)     ;
(PID.TID 0000.0001)  AIM_RAD : ShortWave absorptivities (for dp = 10^5 Pa) :
(PID.TID 0000.0001) AIM_RAD: ABSDRY =   /* abs. of dry air (visible band) */
(PID.TID 0000.0001)                 3.300000000000000E-02
(PID.TID 0000.0001)     ;
(PID.TID 0000.0001) AIM_RAD: ABSAER =   /* abs. of aerosols (visible band) */
(PID.TID 0000.0001)                 3.300000000000000E-02
(PID.TID 0000.0001)     ;
(PID.TID 0000.0001) AIM_RAD: ABSWV1 =   /* abs. of water vap. (vis. band)(/dq, 1g/kg) */
(PID.TID 0000.0001)                 2.200000000000000E-02
(PID.TID 0000.0001)     ;
(PID.TID 0000.0001) AIM_RAD: ABSWV2 =   /* abs. of water vap.(near IR bd)(/dq, 1g/kg) */
(PID.TID 0000.0001)                 1.500000000000000E+01
(PID.TID 0000.0001)     ;
(PID.TID 0000.0001) AIM_RAD: ABSCL1 =   /* abs. of clouds (vis.band)(constant term) */
(PID.TID 0000.0001)                 0.000000000000000E+00
(PID.TID 0000.0001)     ;
(PID.TID 0000.0001) AIM_RAD: ABSCL2 =   /* abs. of clouds (vis.band) (/dw, 1g/kg) */
(PID.TID 0000.0001)                 1.000000000000000E-02
(PID.TID 0000.0001)     ;
(PID.TID 0000.0001) AIM_RAD: ABLWIN =   /* abs. of air in "window" band */
(PID.TID 0000.0001)                 7.000000000000000E-01
(PID.TID 0000.0001)     ;
(PID.TID 0000.0001) AIM_RAD: ABLCO2 =   /* abs. of air in CO2 band */
(PID.TID 0000.0001)                 4.000000000000000E+00
(PID.TID 0000.0001)     ;
(PID.TID 0000.0001) AIM_RAD: ABLWV1 =   /* abs. of Water vap. H2O bd-1(weak)(/dq,1g/kg)*/
(PID.TID 0000.0001)                 7.000000000000000E-01
(PID.TID 0000.0001)     ;
(PID.TID 0000.0001) AIM_RAD: ABLWV2 =   /* abs. of W. vap., H2O bd-2(strong)(/dq,1g/kg)*/
(PID.TID 0000.0001)                 5.000000000000000E+01
(PID.TID 0000.0001)     ;
(PID.TID 0000.0001) AIM_RAD: ABLCL1 =   /* abs. of clouds in window band (const term) */
(PID.TID 0000.0001)                 1.200000000000000E+01
(PID.TID 0000.0001)     ;
(PID.TID 0000.0001) AIM_RAD: ABLCL2 =   /* abs. of clouds in window band (/dw, 1g/kg) */
(PID.TID 0000.0001)                 0.000000000000000E+00
(PID.TID 0000.0001)     ;
(PID.TID 0000.0001) AIM_VDI:  TRSHC =   /* relaxation time [h] for shallow convection */
(PID.TID 0000.0001)                 2.400000000000000E+01
(PID.TID 0000.0001)     ;
(PID.TID 0000.0001) AIM_VDI:  TRVDI =   /* relaxation time [h] for moisture diffusion */
(PID.TID 0000.0001)                 4.000000000000000E+01
(PID.TID 0000.0001)     ;
(PID.TID 0000.0001) AIM_VDI:  TRVDS =   /* relaxation time [h] for super-adiab. cond. */
(PID.TID 0000.0001)                 5.000000000000000E+00
(PID.TID 0000.0001)     ;
(PID.TID 0000.0001) AIM_VDI: RHGRAD =   /* max gradient of rel.humidity (d_RH/d_sigma)*/
(PID.TID 0000.0001)                 5.000000000000000E-01
(PID.TID 0000.0001)     ;
(PID.TID 0000.0001) AIM_VDI: SEGRAD =   /* max grad. of dry static Energy(d_DSE/d_phi)*/
(PID.TID 0000.0001)                 1.000000000000000E-01
(PID.TID 0000.0001)     ;
(PID.TID 0000.0001)  MDS_READ_FIELD: opening global file: landFrc.2f2.bin
(PID.TID 0000.0001) INI_GLOBAL_DOMAIN: Found  24 CS-corner Pts in the domain
(PID.TID 0000.0001) %MON fCori_max                    =   1.4574827780704E-04
(PID.TID 0000.0001) %MON fCori_min                    =  -1.4574827780704E-04
(PID.TID 0000.0001) %MON fCori_mean                   =   0.0000000000000E+00
(PID.TID 0000.0001) %MON fCori_sd                     =   8.4202189509968E-05
(PID.TID 0000.0001) %MON fCoriG_max                   =   1.4584247033981E-04
(PID.TID 0000.0001) %MON fCoriG_min                   =  -1.4584247033981E-04
(PID.TID 0000.0001) %MON fCoriG_mean                  =   2.2587545260115E-21
(PID.TID 0000.0001) %MON fCoriG_sd                    =   8.4202189509968E-05
(PID.TID 0000.0001) %MON fCoriCos_max                 =   1.4580166994612E-04
(PID.TID 0000.0001) %MON fCoriCos_min                 =   5.2407700865903E-06
(PID.TID 0000.0001) %MON fCoriCos_mean                =   1.1514045869113E-04
(PID.TID 0000.0001) %MON fCoriCos_sd                  =   3.0375849106513E-05
(PID.TID 0000.0001) INI_CG2D: CG2D normalisation factor =  9.9119603843467461E-06
(PID.TID 0000.0001) INI_CG2D: cg2dTolerance = 1.123144856357769E-10 (Area=5.0990436378E+14)
(PID.TID 0000.0001) 
(PID.TID 0000.0001) // =======================================================
(PID.TID 0000.0001) // Model configuration
(PID.TID 0000.0001) // =======================================================
(PID.TID 0000.0001) //
(PID.TID 0000.0001) // "Physical" paramters ( PARM01 in namelist )
(PID.TID 0000.0001) //
(PID.TID 0000.0001) buoyancyRelation = /* Type of relation to get Buoyancy */
(PID.TID 0000.0001)               'ATMOSPHERIC'
(PID.TID 0000.0001)     ;
(PID.TID 0000.0001) fluidIsAir   =  /* fluid major constituent is Air */
(PID.TID 0000.0001)                   T
(PID.TID 0000.0001)     ;
(PID.TID 0000.0001) fluidIsWater =  /* fluid major constituent is Water */
(PID.TID 0000.0001)                   F
(PID.TID 0000.0001)     ;
(PID.TID 0000.0001) usingPCoords =  /* use p (or p*) vertical coordinate */
(PID.TID 0000.0001)                   T
(PID.TID 0000.0001)     ;
(PID.TID 0000.0001) usingZCoords =  /* use z (or z*) vertical coordinate */
(PID.TID 0000.0001)                   F
(PID.TID 0000.0001)     ;
(PID.TID 0000.0001) tRef =   /* Reference temperature profile ( oC or K ) */
(PID.TID 0000.0001)                 2.896000000000000E+02,      /* K =  1 */
(PID.TID 0000.0001)                 2.981000000000000E+02,      /* K =  2 */
(PID.TID 0000.0001)                 3.145000000000000E+02,      /* K =  3 */
(PID.TID 0000.0001)                 3.358000000000000E+02,      /* K =  4 */
(PID.TID 0000.0001)                 4.374000000000000E+02       /* K =  5 */
(PID.TID 0000.0001)     ;
(PID.TID 0000.0001) sRef =   /* Reference salinity profile ( psu ) */
(PID.TID 0000.0001)     5 @  0.000000000000000E+00              /* K =  1:  5 */
(PID.TID 0000.0001)     ;
(PID.TID 0000.0001) useStrainTensionVisc= /* Use StrainTension Form of Viscous Operator */
(PID.TID 0000.0001)                   F
(PID.TID 0000.0001)     ;
(PID.TID 0000.0001) useVariableVisc = /* Use variable horizontal viscosity */
(PID.TID 0000.0001)                   F
(PID.TID 0000.0001)     ;
(PID.TID 0000.0001) useHarmonicVisc = /* Use harmonic horizontal viscosity */
(PID.TID 0000.0001)                   F
(PID.TID 0000.0001)     ;
(PID.TID 0000.0001) useBiharmonicVisc= /* Use biharmonic horiz.  viscosity */
(PID.TID 0000.0001)                   F
(PID.TID 0000.0001)     ;
(PID.TID 0000.0001) useSmag3D = /* Use isotropic 3-D Smagorinsky viscosity */
(PID.TID 0000.0001)                   F
(PID.TID 0000.0001)     ;
(PID.TID 0000.0001) viscAh  =   /* Lateral harmonic viscosity ( m^2/s ) */
(PID.TID 0000.0001)                 0.000000000000000E+00
(PID.TID 0000.0001)     ;
(PID.TID 0000.0001) viscA4  =   /* Lateral biharmonic viscosity ( m^4/s ) */
(PID.TID 0000.0001)                 0.000000000000000E+00
(PID.TID 0000.0001)     ;
(PID.TID 0000.0001) no_slip_sides =  /* Viscous BCs: No-slip sides */
(PID.TID 0000.0001)                   F
(PID.TID 0000.0001)     ;
(PID.TID 0000.0001) sideDragFactor = /* side-drag scaling factor (non-dim) */
(PID.TID 0000.0001)                 2.000000000000000E+00
(PID.TID 0000.0001)     ;
(PID.TID 0000.0001) viscArNr = /* vertical profile of vertical viscosity (Pa^2/s )*/
(PID.TID 0000.0001)     5 @  0.000000000000000E+00              /* K =  1:  5 */
(PID.TID 0000.0001)     ;
(PID.TID 0000.0001) no_slip_bottom =  /* Viscous BCs: No-slip bottom */
(PID.TID 0000.0001)                   F
(PID.TID 0000.0001)     ;
(PID.TID 0000.0001) bottomDragLinear = /* linear bottom-drag coefficient ( m/s ) */
(PID.TID 0000.0001)                 0.000000000000000E+00
(PID.TID 0000.0001)     ;
(PID.TID 0000.0001) bottomDragQuadratic = /* quadratic bottom-drag coefficient (-) */
(PID.TID 0000.0001)                 0.000000000000000E+00
(PID.TID 0000.0001)     ;
(PID.TID 0000.0001) diffKhT =   /* Laplacian diffusion of heat laterally ( m^2/s ) */
(PID.TID 0000.0001)                 0.000000000000000E+00
(PID.TID 0000.0001)     ;
(PID.TID 0000.0001) diffK4T =   /* Biharmonic diffusion of heat laterally ( m^4/s ) */
(PID.TID 0000.0001)                 0.000000000000000E+00
(PID.TID 0000.0001)     ;
(PID.TID 0000.0001) diffKhS =   /* Laplacian diffusion of salt laterally ( m^2/s ) */
(PID.TID 0000.0001)                 0.000000000000000E+00
(PID.TID 0000.0001)     ;
(PID.TID 0000.0001) diffK4S =   /* Biharmonic diffusion of salt laterally ( m^4/s ) */
(PID.TID 0000.0001)                 0.000000000000000E+00
(PID.TID 0000.0001)     ;
(PID.TID 0000.0001) diffKrNrT = /* vertical profile of vertical diffusion of Temp (Pa^2/s )*/
(PID.TID 0000.0001)     5 @  0.000000000000000E+00              /* K =  1:  5 */
(PID.TID 0000.0001)     ;
(PID.TID 0000.0001) diffKrNrS = /* vertical profile of vertical diffusion of Salt (Pa^2/s )*/
(PID.TID 0000.0001)     5 @  0.000000000000000E+00              /* K =  1:  5 */
(PID.TID 0000.0001)     ;
(PID.TID 0000.0001) diffKrBL79surf = /* Surface diffusion for Bryan and Lewis 79 ( m^2/s ) */
(PID.TID 0000.0001)                 0.000000000000000E+00
(PID.TID 0000.0001)     ;
(PID.TID 0000.0001) diffKrBL79deep = /* Deep diffusion for Bryan and Lewis 1979 ( m^2/s ) */
(PID.TID 0000.0001)                 0.000000000000000E+00
(PID.TID 0000.0001)     ;
(PID.TID 0000.0001) diffKrBL79scl = /* Depth scale for Bryan and Lewis 1979 ( m ) */
(PID.TID 0000.0001)                 2.000000000000000E+02
(PID.TID 0000.0001)     ;
(PID.TID 0000.0001) diffKrBL79Ho = /* Turning depth for Bryan and Lewis 1979 ( m ) */
(PID.TID 0000.0001)                -2.000000000000000E+03
(PID.TID 0000.0001)     ;
(PID.TID 0000.0001) ivdc_kappa = /* Implicit Vertical Diffusivity for Convection (Pa^2/s) */
(PID.TID 0000.0001)                 0.000000000000000E+00
(PID.TID 0000.0001)     ;
(PID.TID 0000.0001) hMixCriteria=  /* Criteria for mixed-layer diagnostic */
(PID.TID 0000.0001)                -8.000000000000000E-01
(PID.TID 0000.0001)     ;
(PID.TID 0000.0001) dRhoSmall =  /* Parameter for mixed-layer diagnostic */
(PID.TID 0000.0001)                 1.000000000000000E-06
(PID.TID 0000.0001)     ;
(PID.TID 0000.0001) hMixSmooth=  /* Smoothing parameter for mixed-layer diagnostic */
(PID.TID 0000.0001)                 0.000000000000000E+00
(PID.TID 0000.0001)     ;
(PID.TID 0000.0001) eosType =  /* Type of Equation of State */
(PID.TID 0000.0001)               'IDEALG'
(PID.TID 0000.0001)     ;
(PID.TID 0000.0001) celsius2K = /* 0 degree Celsius converted to Kelvin ( K ) */
(PID.TID 0000.0001)                 2.731500000000000E+02
(PID.TID 0000.0001)     ;
(PID.TID 0000.0001) atm_Rd =    /* gas constant for dry air ( J/kg/K ) */
(PID.TID 0000.0001)                 2.868571428571428E+02
(PID.TID 0000.0001)     ;
(PID.TID 0000.0001) atm_Cp =    /* specific heat (Cp) of dry air ( J/kg/K ) */
(PID.TID 0000.0001)                 1.004000000000000E+03
(PID.TID 0000.0001)     ;
(PID.TID 0000.0001) atm_kappa = /* kappa (=Rd/Cp ) of dry air */
(PID.TID 0000.0001)                 2.857142857142857E-01
(PID.TID 0000.0001)     ;
(PID.TID 0000.0001) atm_Rq =  /* water vap. specific vol. anomaly relative to dry air */
(PID.TID 0000.0001)                 6.078000000000000E-04
(PID.TID 0000.0001)     ;
(PID.TID 0000.0001) atm_Po =    /* standard reference pressure ( Pa ) */
(PID.TID 0000.0001)                 1.000000000000000E+05
(PID.TID 0000.0001)     ;
(PID.TID 0000.0001) thetaConst= /* constant reference for potential temperature ( K ) */
(PID.TID 0000.0001)                 2.896000000000000E+02
(PID.TID 0000.0001)     ;
(PID.TID 0000.0001) integr_GeoPot =  /* select how the geopotential is integrated */
(PID.TID 0000.0001)                       2
(PID.TID 0000.0001)     ;
(PID.TID 0000.0001) selectFindRoSurf=  /* select how Surf.Ref. pressure is defined */
(PID.TID 0000.0001)                       1
(PID.TID 0000.0001)     ;
(PID.TID 0000.0001) rhoConst  = /* Reference density (Boussinesq)  ( kg/m^3 ) */
(PID.TID 0000.0001)                 9.998000000000000E+02
(PID.TID 0000.0001)     ;
(PID.TID 0000.0001) rhoFacC = /* normalized Reference density @ cell-Center (-) */
(PID.TID 0000.0001)     5 @  1.000000000000000E+00              /* K =  1:  5 */
(PID.TID 0000.0001)     ;
(PID.TID 0000.0001) rhoFacF = /* normalized Reference density @ W-Interface (-) */
(PID.TID 0000.0001)     6 @  1.000000000000000E+00              /* K =  1:  6 */
(PID.TID 0000.0001)     ;
(PID.TID 0000.0001) rhoConstFresh = /* Fresh-water reference density ( kg/m^3 ) */
(PID.TID 0000.0001)                 1.000000000000000E+03
(PID.TID 0000.0001)     ;
(PID.TID 0000.0001) gravity =   /* Gravitational acceleration ( m/s^2 ) */
(PID.TID 0000.0001)                 9.810000000000000E+00
(PID.TID 0000.0001)     ;
(PID.TID 0000.0001) gBaro =   /* Barotropic gravity ( m/s^2 ) */
(PID.TID 0000.0001)                 9.810000000000000E+00
(PID.TID 0000.0001)     ;
(PID.TID 0000.0001) rotationPeriod =   /* Rotation Period ( s ) */
(PID.TID 0000.0001)                 8.616400000000000E+04
(PID.TID 0000.0001)     ;
(PID.TID 0000.0001) omega =   /* Angular velocity ( rad/s ) */
(PID.TID 0000.0001)                 7.292123516990375E-05
(PID.TID 0000.0001)     ;
(PID.TID 0000.0001) f0 =   /* Reference coriolis parameter ( 1/s ) */
(PID.TID 0000.0001)                 1.000000000000000E-04
(PID.TID 0000.0001)     ;
(PID.TID 0000.0001) beta =   /* Beta ( 1/(m.s) ) */
(PID.TID 0000.0001)                 9.999999999999999E-12
(PID.TID 0000.0001)     ;
(PID.TID 0000.0001) fPrime =   /* Second coriolis parameter ( 1/s ) */
(PID.TID 0000.0001)                 0.000000000000000E+00
(PID.TID 0000.0001)     ;
(PID.TID 0000.0001) rigidLid =   /* Rigid lid on/off flag */
(PID.TID 0000.0001)                   F
(PID.TID 0000.0001)     ;
(PID.TID 0000.0001) implicitFreeSurface =   /* Implicit free surface on/off flag */
(PID.TID 0000.0001)                   T
(PID.TID 0000.0001)     ;
(PID.TID 0000.0001) freeSurfFac =   /* Implicit free surface factor */
(PID.TID 0000.0001)                 1.000000000000000E+00
(PID.TID 0000.0001)     ;
(PID.TID 0000.0001) implicSurfPress =  /* Surface Pressure implicit factor (0-1)*/
(PID.TID 0000.0001)                 1.000000000000000E+00
(PID.TID 0000.0001)     ;
(PID.TID 0000.0001) implicDiv2Dflow =  /* Barot. Flow Div. implicit factor (0-1)*/
(PID.TID 0000.0001)                 1.000000000000000E+00
(PID.TID 0000.0001)     ;
(PID.TID 0000.0001) uniformLin_PhiSurf = /* use uniform Bo_surf on/off flag*/
(PID.TID 0000.0001)                   F
(PID.TID 0000.0001)     ;
(PID.TID 0000.0001) uniformFreeSurfLev = /* free-surface level-index is uniform */
(PID.TID 0000.0001)                   F
(PID.TID 0000.0001)     ;
(PID.TID 0000.0001) hFacMin =   /* minimum partial cell factor (hFac) */
(PID.TID 0000.0001)                 2.000000000000000E-01
(PID.TID 0000.0001)     ;
(PID.TID 0000.0001) hFacMinDr = /* minimum partial cell thickness (Pa) */
(PID.TID 0000.0001)                 0.000000000000000E+00
(PID.TID 0000.0001)     ;
(PID.TID 0000.0001) exactConserv =  /* Exact Volume Conservation on/off flag*/
(PID.TID 0000.0001)                   T
(PID.TID 0000.0001)     ;
(PID.TID 0000.0001) linFSConserveTr = /* Tracer correction for Lin Free Surface on/off flag*/
(PID.TID 0000.0001)                   F
(PID.TID 0000.0001)     ;
(PID.TID 0000.0001) nonlinFreeSurf = /* Non-linear Free Surf. options (-1,0,1,2,3)*/
(PID.TID 0000.0001)                       4
(PID.TID 0000.0001)      -1,0= Off ; 1,2,3= On, 2=+rescale gU,gV, 3=+update cg2d solv.
(PID.TID 0000.0001)     ;
(PID.TID 0000.0001) hFacInf =   /* lower threshold for hFac (nonlinFreeSurf only)*/
(PID.TID 0000.0001)                 2.000000000000000E-01
(PID.TID 0000.0001)     ;
(PID.TID 0000.0001) hFacSup =   /* upper threshold for hFac (nonlinFreeSurf only)*/
(PID.TID 0000.0001)                 2.000000000000000E+00
(PID.TID 0000.0001)     ;
(PID.TID 0000.0001) select_rStar = /* r* Vertical coord. options (=0 r coord.; >0 uses r*)*/
(PID.TID 0000.0001)                       2
(PID.TID 0000.0001)     ;
(PID.TID 0000.0001) useRealFreshWaterFlux = /* Real Fresh Water Flux on/off flag*/
(PID.TID 0000.0001)                   F
(PID.TID 0000.0001)     ;
(PID.TID 0000.0001) temp_EvPrRn = /* Temp. of Evap/Prec/R (UNSET=use local T)(oC)*/
(PID.TID 0000.0001)                 1.234567000000000E+05
(PID.TID 0000.0001)     ;
(PID.TID 0000.0001) salt_EvPrRn = /* Salin. of Evap/Prec/R (UNSET=use local S)(psu)*/
(PID.TID 0000.0001)                 0.000000000000000E+00
(PID.TID 0000.0001)     ;
(PID.TID 0000.0001) selectAddFluid = /* option for mass source/sink of fluid (=0: off) */
(PID.TID 0000.0001)                       0
(PID.TID 0000.0001)     ;
(PID.TID 0000.0001) temp_addMass = /* Temp. of addMass array (UNSET=use local T)(oC)*/
(PID.TID 0000.0001)                 1.234567000000000E+05
(PID.TID 0000.0001)     ;
(PID.TID 0000.0001) salt_addMass = /* Salin. of addMass array (UNSET=use local S)(psu)*/
(PID.TID 0000.0001)                 0.000000000000000E+00
(PID.TID 0000.0001)     ;
(PID.TID 0000.0001) convertFW2Salt = /* convert F.W. Flux to Salt Flux (-1=use local S)(psu)*/
(PID.TID 0000.0001)                 3.500000000000000E+01
(PID.TID 0000.0001)     ;
(PID.TID 0000.0001) use3Dsolver = /* use 3-D pressure solver on/off flag */
(PID.TID 0000.0001)                   F
(PID.TID 0000.0001)     ;
(PID.TID 0000.0001) nonHydrostatic =  /* Non-Hydrostatic on/off flag */
(PID.TID 0000.0001)                   F
(PID.TID 0000.0001)     ;
(PID.TID 0000.0001) nh_Am2 = /* Non-Hydrostatic terms scaling factor */
(PID.TID 0000.0001)                 1.000000000000000E+00
(PID.TID 0000.0001)     ;
(PID.TID 0000.0001) implicitNHPress = /* Non-Hyd Pressure implicit factor (0-1)*/
(PID.TID 0000.0001)                 1.000000000000000E+00
(PID.TID 0000.0001)     ;
(PID.TID 0000.0001) selectNHfreeSurf = /* Non-Hyd (free-)Surface option */
(PID.TID 0000.0001)                       0
(PID.TID 0000.0001)     ;
(PID.TID 0000.0001) quasiHydrostatic = /* Quasi-Hydrostatic on/off flag */
(PID.TID 0000.0001)                   F
(PID.TID 0000.0001)     ;
(PID.TID 0000.0001) calc_wVelocity = /* vertical velocity calculation on/off flag */
(PID.TID 0000.0001)                   T
(PID.TID 0000.0001)     ;
(PID.TID 0000.0001) momStepping =  /* Momentum equation on/off flag */
(PID.TID 0000.0001)                   T
(PID.TID 0000.0001)     ;
(PID.TID 0000.0001) vectorInvariantMomentum= /* Vector-Invariant Momentum on/off */
(PID.TID 0000.0001)                   T
(PID.TID 0000.0001)     ;
(PID.TID 0000.0001) momAdvection =  /* Momentum advection on/off flag */
(PID.TID 0000.0001)                   T
(PID.TID 0000.0001)     ;
(PID.TID 0000.0001) momViscosity =  /* Momentum viscosity on/off flag */
(PID.TID 0000.0001)                   T
(PID.TID 0000.0001)     ;
(PID.TID 0000.0001) momImplVertAdv= /* Momentum implicit vert. advection on/off*/
(PID.TID 0000.0001)                   F
(PID.TID 0000.0001)     ;
(PID.TID 0000.0001) implicitViscosity = /* Implicit viscosity on/off flag */
(PID.TID 0000.0001)                   F
(PID.TID 0000.0001)     ;
(PID.TID 0000.0001) metricTerms =  /* metric-Terms on/off flag */
(PID.TID 0000.0001)                   F
(PID.TID 0000.0001)     ;
(PID.TID 0000.0001) useNHMTerms = /* Non-Hydrostatic Metric-Terms on/off */
(PID.TID 0000.0001)                   F
(PID.TID 0000.0001)     ;
(PID.TID 0000.0001) selectCoriMap = /* Coriolis Map options (0,1,2,3)*/
(PID.TID 0000.0001)                       2
(PID.TID 0000.0001)     0= f-Plane ; 1= Beta-Plane ; 2= Spherical ; 3= read from file
(PID.TID 0000.0001)     ;
(PID.TID 0000.0001) use3dCoriolis = /* 3-D Coriolis on/off flag */
(PID.TID 0000.0001)                   F
(PID.TID 0000.0001)     ;
(PID.TID 0000.0001) useCoriolis =  /* Coriolis on/off flag */
(PID.TID 0000.0001)                   T
(PID.TID 0000.0001)     ;
(PID.TID 0000.0001) useCDscheme =  /* CD scheme on/off flag */
(PID.TID 0000.0001)                   F
(PID.TID 0000.0001)     ;
(PID.TID 0000.0001) useEnergyConservingCoriolis= /* Flx-Form Coriolis scheme flag */
(PID.TID 0000.0001)                   F
(PID.TID 0000.0001)     ;
(PID.TID 0000.0001) useJamartWetPoints= /* Coriolis WetPoints method flag */
(PID.TID 0000.0001)                   T
(PID.TID 0000.0001)     ;
(PID.TID 0000.0001) useJamartMomAdv= /* V.I Non-linear terms Jamart flag */
(PID.TID 0000.0001)                   F
(PID.TID 0000.0001)     ;
(PID.TID 0000.0001) useAbsVorticity= /* V.I Works with f+zeta in Coriolis */
(PID.TID 0000.0001)                   F
(PID.TID 0000.0001)     ;
(PID.TID 0000.0001) selectVortScheme= /* V.I Scheme selector for Vorticity-Term */
(PID.TID 0000.0001)                       1
(PID.TID 0000.0001)    = 0 : enstrophy (Shallow-Water Eq.) conserving scheme by Sadourny, JAS 75
(PID.TID 0000.0001)    = 1 : same as 0 with modified hFac
(PID.TID 0000.0001)    = 2 : energy conserving scheme (used by Sadourny in JAS 75 paper)
(PID.TID 0000.0001)    = 3 : energy (general) and enstrophy (2D, nonDiv.) conserving scheme
(PID.TID 0000.0001)          from Sadourny (Burridge & Haseler, ECMWF Rep.4, 1977)
(PID.TID 0000.0001)     ;
(PID.TID 0000.0001) upwindVorticity= /* V.I Upwind bias vorticity flag */
(PID.TID 0000.0001)                   F
(PID.TID 0000.0001)     ;
(PID.TID 0000.0001) highOrderVorticity= /* V.I High order vort. advect. flag */
(PID.TID 0000.0001)                   F
(PID.TID 0000.0001)     ;
(PID.TID 0000.0001) upwindShear= /* V.I Upwind vertical Shear advection flag */
(PID.TID 0000.0001)                   F
(PID.TID 0000.0001)     ;
(PID.TID 0000.0001) selectKEscheme= /* V.I Kinetic Energy scheme selector */
(PID.TID 0000.0001)                       0
(PID.TID 0000.0001)     ;
(PID.TID 0000.0001) momForcing =  /* Momentum forcing on/off flag */
(PID.TID 0000.0001)                   T
(PID.TID 0000.0001)     ;
(PID.TID 0000.0001) momPressureForcing =  /* Momentum pressure term on/off flag */
(PID.TID 0000.0001)                   T
(PID.TID 0000.0001)     ;
(PID.TID 0000.0001) implicitIntGravWave= /* Implicit Internal Gravity Wave flag */
(PID.TID 0000.0001)                   F
(PID.TID 0000.0001)     ;
(PID.TID 0000.0001) staggerTimeStep =    /* Stagger time stepping on/off flag */
(PID.TID 0000.0001)                   T
(PID.TID 0000.0001)     ;
(PID.TID 0000.0001) doResetHFactors = /* reset thickness factors @ each time-step */
(PID.TID 0000.0001)                   F
(PID.TID 0000.0001)     ;
(PID.TID 0000.0001) multiDimAdvection =  /* enable/disable Multi-Dim Advection */
(PID.TID 0000.0001)                   T
(PID.TID 0000.0001)     ;
(PID.TID 0000.0001) useMultiDimAdvec =   /* Multi-Dim Advection is/is-not used */
(PID.TID 0000.0001)                   F
(PID.TID 0000.0001)     ;
(PID.TID 0000.0001) implicitDiffusion = /* Implicit Diffusion on/off flag */
(PID.TID 0000.0001)                   F
(PID.TID 0000.0001)     ;
(PID.TID 0000.0001) tempStepping =  /* Temperature equation on/off flag */
(PID.TID 0000.0001)                   T
(PID.TID 0000.0001)     ;
(PID.TID 0000.0001) tempAdvection = /* Temperature advection on/off flag */
(PID.TID 0000.0001)                   T
(PID.TID 0000.0001)     ;
(PID.TID 0000.0001) tempImplVertAdv = /* Temp. implicit vert. advection on/off */
(PID.TID 0000.0001)                   F
(PID.TID 0000.0001)     ;
(PID.TID 0000.0001) tempForcing  =  /* Temperature forcing on/off flag */
(PID.TID 0000.0001)                   T
(PID.TID 0000.0001)     ;
(PID.TID 0000.0001) addFrictionHeating= /* account for frictional heating */
(PID.TID 0000.0001)                   F
(PID.TID 0000.0001)     ;
(PID.TID 0000.0001) doThetaClimRelax = /* apply SST relaxation on/off flag */
(PID.TID 0000.0001)                   F
(PID.TID 0000.0001)     ;
(PID.TID 0000.0001) tempIsActiveTr = /* Temp. is a dynamically Active Tracer */
(PID.TID 0000.0001)                   T
(PID.TID 0000.0001)     ;
(PID.TID 0000.0001) saltStepping =  /* Salinity equation on/off flag */
(PID.TID 0000.0001)                   T
(PID.TID 0000.0001)     ;
(PID.TID 0000.0001) saltAdvection = /* Salinity advection on/off flag */
(PID.TID 0000.0001)                   T
(PID.TID 0000.0001)     ;
(PID.TID 0000.0001) saltImplVertAdv = /* Sali. implicit vert. advection on/off */
(PID.TID 0000.0001)                   F
(PID.TID 0000.0001)     ;
(PID.TID 0000.0001) saltForcing  =  /* Salinity forcing on/off flag */
(PID.TID 0000.0001)                   T
(PID.TID 0000.0001)     ;
(PID.TID 0000.0001) doSaltClimRelax = /* apply SSS relaxation on/off flag */
(PID.TID 0000.0001)                   F
(PID.TID 0000.0001)     ;
(PID.TID 0000.0001) saltIsActiveTr = /* Salt  is a dynamically Active Tracer */
(PID.TID 0000.0001)                   T
(PID.TID 0000.0001)     ;
(PID.TID 0000.0001)  readBinaryPrec = /* Precision used for reading binary files */
(PID.TID 0000.0001)                      64
(PID.TID 0000.0001)     ;
(PID.TID 0000.0001) writeBinaryPrec = /* Precision used for writing binary files */
(PID.TID 0000.0001)                      64
(PID.TID 0000.0001)     ;
(PID.TID 0000.0001)  globalFiles = /* write "global" (=not per tile) files */
(PID.TID 0000.0001)                   F
(PID.TID 0000.0001)     ;
(PID.TID 0000.0001)  useSingleCpuIO = /* only master MPI process does I/O */
(PID.TID 0000.0001)                   F
(PID.TID 0000.0001)     ;
(PID.TID 0000.0001)  useSingleCpuInput = /* only master process reads input */
(PID.TID 0000.0001)                   F
(PID.TID 0000.0001)     ;
(PID.TID 0000.0001) /* debLev[*]  : level of debug & auxiliary message printing */
(PID.TID 0000.0001) debLevZero =  0 ; /* level of disabled aux. msg printing */
(PID.TID 0000.0001)    debLevA =  1 ; /* level of minimum  aux. msg printing */
(PID.TID 0000.0001)    debLevB =  2 ; /* level of low aux. print (report read-file opening)*/
(PID.TID 0000.0001)    debLevC =  3 ; /* level of moderate debug prt (most pkgs debug msg) */
(PID.TID 0000.0001)    debLevD =  4 ; /* level of enhanced debug prt (add DEBUG_STATS prt) */
(PID.TID 0000.0001)    debLevE =  5 ; /* level of extensive debug printing */
(PID.TID 0000.0001) debugLevel =  /* select debug printing level */
(PID.TID 0000.0001)                       2
(PID.TID 0000.0001)     ;
(PID.TID 0000.0001) //
(PID.TID 0000.0001) // Elliptic solver(s) paramters ( PARM02 in namelist )
(PID.TID 0000.0001) //
(PID.TID 0000.0001) cg2dMaxIters =   /* Upper limit on 2d con. grad iterations  */
(PID.TID 0000.0001)                     200
(PID.TID 0000.0001)     ;
(PID.TID 0000.0001) cg2dChkResFreq =   /* 2d con. grad convergence test frequency */
(PID.TID 0000.0001)                       1
(PID.TID 0000.0001)     ;
(PID.TID 0000.0001) cg2dUseMinResSol= /* use cg2d last-iter(=0) / min-resid.(=1) solution */
(PID.TID 0000.0001)                       0
(PID.TID 0000.0001)     ;
(PID.TID 0000.0001) cg2dTargetResidual =   /* 2d con. grad target residual  */
(PID.TID 0000.0001)                 1.000000000000000E-07
(PID.TID 0000.0001)     ;
(PID.TID 0000.0001) cg2dTargetResWunit =   /* CG2d target residual [W units] */
(PID.TID 0000.0001)                 1.000000000000000E-17
(PID.TID 0000.0001)     ;
(PID.TID 0000.0001) cg2dPreCondFreq =   /* Freq. for updating cg2d preconditioner */
(PID.TID 0000.0001)                       1
(PID.TID 0000.0001)     ;
(PID.TID 0000.0001) useSRCGSolver =  /* use single reduction CG solver(s) */
(PID.TID 0000.0001)                   F
(PID.TID 0000.0001)     ;
(PID.TID 0000.0001) printResidualFreq = /* Freq. for printing CG residual */
(PID.TID 0000.0001)                       0
(PID.TID 0000.0001)     ;
(PID.TID 0000.0001) //
(PID.TID 0000.0001) // Time stepping paramters ( PARM03 in namelist )
(PID.TID 0000.0001) //
(PID.TID 0000.0001) deltaTMom =   /* Momentum equation timestep ( s ) */
(PID.TID 0000.0001)                 4.500000000000000E+02
(PID.TID 0000.0001)     ;
(PID.TID 0000.0001) deltaTFreeSurf = /* FreeSurface equation timestep ( s ) */
(PID.TID 0000.0001)                 4.500000000000000E+02
(PID.TID 0000.0001)     ;
(PID.TID 0000.0001) dTtracerLev =  /* Tracer equation timestep ( s ) */
(PID.TID 0000.0001)     5 @  4.500000000000000E+02              /* K =  1:  5 */
(PID.TID 0000.0001)     ;
(PID.TID 0000.0001) deltaTClock  =   /* Model clock timestep ( s ) */
(PID.TID 0000.0001)                 4.500000000000000E+02
(PID.TID 0000.0001)     ;
(PID.TID 0000.0001) cAdjFreq =   /* Convective adjustment interval ( s ) */
(PID.TID 0000.0001)                 0.000000000000000E+00
(PID.TID 0000.0001)     ;
(PID.TID 0000.0001) momForcingOutAB = /* =1: take Momentum Forcing out of Adams-Bash. stepping */
(PID.TID 0000.0001)                       1
(PID.TID 0000.0001)     ;
(PID.TID 0000.0001) tracForcingOutAB = /* =1: take T,S,pTr Forcing out of Adams-Bash. stepping */
(PID.TID 0000.0001)                       1
(PID.TID 0000.0001)     ;
(PID.TID 0000.0001) momDissip_In_AB = /* put Dissipation Tendency in Adams-Bash. stepping */
(PID.TID 0000.0001)                   T
(PID.TID 0000.0001)     ;
(PID.TID 0000.0001) doAB_onGtGs = /* apply AB on Tendencies (rather than on T,S)*/
(PID.TID 0000.0001)                   T
(PID.TID 0000.0001)     ;
(PID.TID 0000.0001) abEps =   /* Adams-Bashforth-2 stabilizing weight */
(PID.TID 0000.0001)                 1.000000000000000E-01
(PID.TID 0000.0001)     ;
(PID.TID 0000.0001) pickupStrictlyMatch= /* stop if pickup do not strictly match */
(PID.TID 0000.0001)                   T
(PID.TID 0000.0001)     ;
(PID.TID 0000.0001) nIter0   =   /* Run starting timestep number */
(PID.TID 0000.0001)                   69120
(PID.TID 0000.0001)     ;
(PID.TID 0000.0001) nTimeSteps = /* Number of timesteps */
(PID.TID 0000.0001)                      10
(PID.TID 0000.0001)     ;
(PID.TID 0000.0001) nEndIter =   /* Run ending timestep number */
(PID.TID 0000.0001)                   69130
(PID.TID 0000.0001)     ;
(PID.TID 0000.0001) baseTime =   /* Model base time ( s ) */
(PID.TID 0000.0001)                 0.000000000000000E+00
(PID.TID 0000.0001)     ;
(PID.TID 0000.0001) startTime =  /* Run start time ( s ) */
(PID.TID 0000.0001)                 3.110400000000000E+07
(PID.TID 0000.0001)     ;
(PID.TID 0000.0001) endTime  =   /* Integration ending time ( s ) */
(PID.TID 0000.0001)                 3.110850000000000E+07
(PID.TID 0000.0001)     ;
(PID.TID 0000.0001) pChkPtFreq = /* Permanent restart/pickup file interval ( s ) */
(PID.TID 0000.0001)                 2.592000000000000E+06
(PID.TID 0000.0001)     ;
(PID.TID 0000.0001) chkPtFreq  = /* Rolling restart/pickup file interval ( s ) */
(PID.TID 0000.0001)                 0.000000000000000E+00
(PID.TID 0000.0001)     ;
(PID.TID 0000.0001) pickup_write_mdsio =   /* Model IO flag. */
(PID.TID 0000.0001)                   T
(PID.TID 0000.0001)     ;
(PID.TID 0000.0001) pickup_read_mdsio =   /* Model IO flag. */
(PID.TID 0000.0001)                   T
(PID.TID 0000.0001)     ;
(PID.TID 0000.0001) pickup_write_mnc =   /* Model IO flag. */
(PID.TID 0000.0001)                   F
(PID.TID 0000.0001)     ;
(PID.TID 0000.0001) pickup_read_mnc =   /* Model IO flag. */
(PID.TID 0000.0001)                   F
(PID.TID 0000.0001)     ;
(PID.TID 0000.0001) pickup_write_immed =   /* Model IO flag. */
(PID.TID 0000.0001)                   F
(PID.TID 0000.0001)     ;
(PID.TID 0000.0001) writePickupAtEnd =   /* Model IO flag. */
(PID.TID 0000.0001)                   T
(PID.TID 0000.0001)     ;
(PID.TID 0000.0001) dumpFreq =   /* Model state write out interval ( s ). */
(PID.TID 0000.0001)                 7.776000000000000E+06
(PID.TID 0000.0001)     ;
(PID.TID 0000.0001) dumpInitAndLast= /* write out Initial & Last iter. model state */
(PID.TID 0000.0001)                   T
(PID.TID 0000.0001)     ;
(PID.TID 0000.0001) snapshot_mdsio =   /* Model IO flag. */
(PID.TID 0000.0001)                   T
(PID.TID 0000.0001)     ;
(PID.TID 0000.0001) snapshot_mnc =   /* Model IO flag. */
(PID.TID 0000.0001)                   F
(PID.TID 0000.0001)     ;
(PID.TID 0000.0001) monitorFreq =   /* Monitor output interval ( s ). */
(PID.TID 0000.0001)                 1.000000000000000E+00
(PID.TID 0000.0001)     ;
(PID.TID 0000.0001) monitorSelect = /* select group of variables to monitor */
(PID.TID 0000.0001)                       2
(PID.TID 0000.0001)     ;
(PID.TID 0000.0001) monitor_stdio =   /* Model IO flag. */
(PID.TID 0000.0001)                   T
(PID.TID 0000.0001)     ;
(PID.TID 0000.0001) monitor_mnc =   /* Model IO flag. */
(PID.TID 0000.0001)                   F
(PID.TID 0000.0001)     ;
(PID.TID 0000.0001) externForcingPeriod =   /* forcing period (s) */
(PID.TID 0000.0001)                 0.000000000000000E+00
(PID.TID 0000.0001)     ;
(PID.TID 0000.0001) externForcingCycle =   /* period of the cyle (s). */
(PID.TID 0000.0001)                 0.000000000000000E+00
(PID.TID 0000.0001)     ;
(PID.TID 0000.0001) tauThetaClimRelax =   /* relaxation time scale (s) */
(PID.TID 0000.0001)                 0.000000000000000E+00
(PID.TID 0000.0001)     ;
(PID.TID 0000.0001) tauSaltClimRelax =   /* relaxation time scale (s) */
(PID.TID 0000.0001)                 0.000000000000000E+00
(PID.TID 0000.0001)     ;
(PID.TID 0000.0001) latBandClimRelax =   /* max. Lat. where relaxation */
(PID.TID 0000.0001)                 1.800000000000000E+02
(PID.TID 0000.0001)     ;
(PID.TID 0000.0001) //
(PID.TID 0000.0001) // Gridding paramters ( PARM04 in namelist )
(PID.TID 0000.0001) //
(PID.TID 0000.0001) usingCartesianGrid = /* Cartesian coordinates flag ( True/False ) */
(PID.TID 0000.0001)                   F
(PID.TID 0000.0001)     ;
(PID.TID 0000.0001) usingCylindricalGrid = /* Cylindrical coordinates flag ( True/False ) */
(PID.TID 0000.0001)                   F
(PID.TID 0000.0001)     ;
(PID.TID 0000.0001) usingSphericalPolarGrid = /* Spherical coordinates flag ( True/False ) */
(PID.TID 0000.0001)                   F
(PID.TID 0000.0001)     ;
(PID.TID 0000.0001) usingCurvilinearGrid = /* Curvilinear coordinates flag ( True/False ) */
(PID.TID 0000.0001)                   T
(PID.TID 0000.0001)     ;
(PID.TID 0000.0001) selectSigmaCoord = /* Hybrid-Sigma Vert. Coordinate option */
(PID.TID 0000.0001)                       0
(PID.TID 0000.0001)     ;
(PID.TID 0000.0001) Ro_SeaLevel = /* r(1) ( units of r == Pa ) */
(PID.TID 0000.0001)                 1.000000000000000E+05
(PID.TID 0000.0001)     ;
(PID.TID 0000.0001) rSigmaBnd = /* r/sigma transition ( units of r == Pa ) */
(PID.TID 0000.0001)                 1.234567000000000E+05
(PID.TID 0000.0001)     ;
(PID.TID 0000.0001) rkSign =   /* index orientation relative to vertical coordinate */
(PID.TID 0000.0001)                -1.000000000000000E+00
(PID.TID 0000.0001)     ;
(PID.TID 0000.0001) gravitySign = /* gravity orientation relative to vertical coordinate */
(PID.TID 0000.0001)                 1.000000000000000E+00
(PID.TID 0000.0001)     ;
(PID.TID 0000.0001) mass2rUnit = /* convert mass per unit area [kg/m2] to r-units [Pa] */
(PID.TID 0000.0001)                 9.810000000000000E+00
(PID.TID 0000.0001)     ;
(PID.TID 0000.0001) rUnit2mass = /* convert r-units [Pa] to mass per unit area [kg/m2] */
(PID.TID 0000.0001)                 1.019367991845056E-01
(PID.TID 0000.0001)     ;
(PID.TID 0000.0001) drC =   /* C spacing ( units of r ) */
(PID.TID 0000.0001)                 5.000000000000000E+03,      /* K =  1 */
(PID.TID 0000.0001)                 1.750000000000000E+04,      /* K =  2 */
(PID.TID 0000.0001)                 2.750000000000000E+04,      /* K =  3 */
(PID.TID 0000.0001)                 2.500000000000000E+04,      /* K =  4 */
(PID.TID 0000.0001)                 1.750000000000000E+04,      /* K =  5 */
(PID.TID 0000.0001)                 7.500000000000000E+03       /* K =  6 */
(PID.TID 0000.0001)     ;
(PID.TID 0000.0001) drF =   /* W spacing ( units of r ) */
(PID.TID 0000.0001)                 1.000000000000000E+04,      /* K =  1 */
(PID.TID 0000.0001)                 2.500000000000000E+04,      /* K =  2 */
(PID.TID 0000.0001)                 3.000000000000000E+04,      /* K =  3 */
(PID.TID 0000.0001)                 2.000000000000000E+04,      /* K =  4 */
(PID.TID 0000.0001)                 1.500000000000000E+04       /* K =  5 */
(PID.TID 0000.0001)     ;
(PID.TID 0000.0001) radius_fromHorizGrid = /* sphere Radius of input horiz. grid */
(PID.TID 0000.0001)                 6.370000000000000E+06
(PID.TID 0000.0001)     ;
(PID.TID 0000.0001) rSphere =  /* Radius ( ignored - cartesian, m - spherical ) */
(PID.TID 0000.0001)                 6.370000000000000E+06
(PID.TID 0000.0001)     ;
(PID.TID 0000.0001) deepAtmosphere = /* Deep/Shallow Atmosphere flag (True/False) */
(PID.TID 0000.0001)                   F
(PID.TID 0000.0001)     ;
(PID.TID 0000.0001) xC =  /* xC(:,1,:,1) : P-point X coord ( deg. or m if cartesian) */
(PID.TID 0000.0001)                -4.439521994760536E+01,      /* I =  1 */
(PID.TID 0000.0001)                -4.295641272275883E+01,      /* I =  2 */
(PID.TID 0000.0001)                -4.122055553388957E+01,      /* I =  3 */
(PID.TID 0000.0001)      . . .
(PID.TID 0000.0001)                 8.070819219728060E+01,      /* I = 46 */
(PID.TID 0000.0001)                 8.439652466417766E+01,      /* I = 47 */
(PID.TID 0000.0001)                 8.812739148696656E+01,      /* I = 48 */
(PID.TID 0000.0001)                 9.187260851303344E+01,      /* I = 49 */
(PID.TID 0000.0001)                 9.560347533582234E+01,      /* I = 50 */
(PID.TID 0000.0001)                 9.929180780271940E+01,      /* I = 51 */
(PID.TID 0000.0001)      . . .
(PID.TID 0000.0001)                 1.321863035748696E+02,      /* I = 94 */
(PID.TID 0000.0001)                 1.337919453120370E+02,      /* I = 95 */
(PID.TID 0000.0001)                 1.350000000000000E+02,      /* I = 96 */
(PID.TID 0000.0001)                 1.356047800523947E+02,      /* I = 97 */
(PID.TID 0000.0001)                 1.358367907661329E+02,      /* I = 98 */
(PID.TID 0000.0001)                 1.359720382181193E+02,      /* I = 99 */
(PID.TID 0000.0001)      . . .
(PID.TID 0000.0001)                -1.336511021209287E+02,      /* I =142 */
(PID.TID 0000.0001)                -1.336469399409420E+02,      /* I =143 */
(PID.TID 0000.0001)                -1.336449032499283E+02,      /* I =144 */
(PID.TID 0000.0001)                -1.336449032499283E+02,      /* I =145 */
(PID.TID 0000.0001)                -1.336469399409420E+02,      /* I =146 */
(PID.TID 0000.0001)                -1.336511021209287E+02,      /* I =147 */
(PID.TID 0000.0001)      . . .
(PID.TID 0000.0001)                 1.378136964251304E+02,      /* I =190 */
(PID.TID 0000.0001)                 1.362080546879630E+02,      /* I =191 */
(PID.TID 0000.0001)                 1.350000000000000E+02       /* I =192 */
(PID.TID 0000.0001)     ;
(PID.TID 0000.0001) yC =  /* yC(1,:,1,:) : P-point Y coord ( deg. or m if cartesian) */
(PID.TID 0000.0001)                -3.497677942598243E+01,      /* J =  1 */
(PID.TID 0000.0001)                -3.374005967394886E+01,      /* J =  2 */
(PID.TID 0000.0001)                -3.220655175667454E+01,      /* J =  3 */
(PID.TID 0000.0001)                -3.045756348838641E+01,      /* J =  4 */
(PID.TID 0000.0001)                -2.853728129852918E+01,      /* J =  5 */
(PID.TID 0000.0001)                -2.647426640173173E+01,      /* J =  6 */
(PID.TID 0000.0001)                -2.428936657094636E+01,      /* J =  7 */
(PID.TID 0000.0001)                -2.199915808312262E+01,      /* J =  8 */
(PID.TID 0000.0001)                -1.961768597440146E+01,      /* J =  9 */
(PID.TID 0000.0001)                -1.715743888281371E+01,      /* J = 10 */
(PID.TID 0000.0001)                -1.462993396899330E+01,      /* J = 11 */
(PID.TID 0000.0001)                -1.204608340464756E+01,      /* J = 12 */
(PID.TID 0000.0001)                -9.416429130284818E+00,      /* J = 13 */
(PID.TID 0000.0001)                -6.751293662992216E+00,      /* J = 14 */
(PID.TID 0000.0001)                -4.060875511835959E+00,      /* J = 15 */
(PID.TID 0000.0001)                -1.355307764409121E+00,      /* J = 16 */
(PID.TID 0000.0001)                 1.355307764409121E+00,      /* J = 17 */
(PID.TID 0000.0001)                 4.060875511835959E+00,      /* J = 18 */
(PID.TID 0000.0001)                 6.751293662992216E+00,      /* J = 19 */
(PID.TID 0000.0001)                 9.416429130284818E+00,      /* J = 20 */
(PID.TID 0000.0001)                 1.204608340464756E+01,      /* J = 21 */
(PID.TID 0000.0001)                 1.462993396899330E+01,      /* J = 22 */
(PID.TID 0000.0001)                 1.715743888281371E+01,      /* J = 23 */
(PID.TID 0000.0001)                 1.961768597440146E+01,      /* J = 24 */
(PID.TID 0000.0001)                 2.199915808312262E+01,      /* J = 25 */
(PID.TID 0000.0001)                 2.428936657094636E+01,      /* J = 26 */
(PID.TID 0000.0001)                 2.647426640173173E+01,      /* J = 27 */
(PID.TID 0000.0001)                 2.853728129852918E+01,      /* J = 28 */
(PID.TID 0000.0001)                 3.045756348838641E+01,      /* J = 29 */
(PID.TID 0000.0001)                 3.220655175667454E+01,      /* J = 30 */
(PID.TID 0000.0001)                 3.374005967394886E+01,      /* J = 31 */
(PID.TID 0000.0001)                 3.497677942598243E+01       /* J = 32 */
(PID.TID 0000.0001)     ;
(PID.TID 0000.0001) rcoord = /* P-point R coordinate (  units of r ) */
(PID.TID 0000.0001)                 9.500000000000000E+04,      /* K =  1 */
(PID.TID 0000.0001)                 7.750000000000000E+04,      /* K =  2 */
(PID.TID 0000.0001)                 5.000000000000000E+04,      /* K =  3 */
(PID.TID 0000.0001)                 2.500000000000000E+04,      /* K =  4 */
(PID.TID 0000.0001)                 7.500000000000000E+03       /* K =  5 */
(PID.TID 0000.0001)     ;
(PID.TID 0000.0001) rF =   /* W-Interf. R coordinate (  units of r ) */
(PID.TID 0000.0001)                 1.000000000000000E+05,      /* K =  1 */
(PID.TID 0000.0001)                 9.000000000000000E+04,      /* K =  2 */
(PID.TID 0000.0001)                 6.500000000000000E+04,      /* K =  3 */
(PID.TID 0000.0001)                 3.500000000000000E+04,      /* K =  4 */
(PID.TID 0000.0001)                 1.500000000000000E+04,      /* K =  5 */
(PID.TID 0000.0001)                 0.000000000000000E+00       /* K =  6 */
(PID.TID 0000.0001)     ;
(PID.TID 0000.0001) deepFacC = /* deep-model grid factor @ cell-Center (-) */
(PID.TID 0000.0001)     5 @  1.000000000000000E+00              /* K =  1:  5 */
(PID.TID 0000.0001)     ;
(PID.TID 0000.0001) deepFacF = /* deep-model grid factor @ W-Interface (-) */
(PID.TID 0000.0001)     6 @  1.000000000000000E+00              /* K =  1:  6 */
(PID.TID 0000.0001)     ;
(PID.TID 0000.0001) rVel2wUnit = /* convert units: rVel -> wSpeed (=1 if z-coord)*/
(PID.TID 0000.0001)                 8.468280180573759E-02,      /* K =  1 */
(PID.TID 0000.0001)                 9.264164924838553E-02,      /* K =  2 */
(PID.TID 0000.0001)                 1.218363765768670E-01,      /* K =  3 */
(PID.TID 0000.0001)                 2.012547327065781E-01,      /* K =  4 */
(PID.TID 0000.0001)                 4.382932217562046E-01,      /* K =  5 */
(PID.TID 0000.0001)                 1.000000000000000E+00       /* K =  6 */
(PID.TID 0000.0001)     ;
(PID.TID 0000.0001) wUnit2rVel = /* convert units: wSpeed -> rVel (=1 if z-coord)*/
(PID.TID 0000.0001)                 1.180877319451476E+01,      /* K =  1 */
(PID.TID 0000.0001)                 1.079428106162982E+01,      /* K =  2 */
(PID.TID 0000.0001)                 8.207729317763288E+00,      /* K =  3 */
(PID.TID 0000.0001)                 4.968827249682435E+00,      /* K =  4 */
(PID.TID 0000.0001)                 2.281577606865748E+00,      /* K =  5 */
(PID.TID 0000.0001)                 1.000000000000000E+00       /* K =  6 */
(PID.TID 0000.0001)     ;
(PID.TID 0000.0001) dBdrRef = /* Vertical grad. of reference buoyancy [(m/s/r)^2] */
(PID.TID 0000.0001)                 0.000000000000000E+00,      /* K =  1 */
(PID.TID 0000.0001)                 1.551846956946958E-06,      /* K =  2 */
(PID.TID 0000.0001)                 2.382518577942705E-06,      /* K =  3 */
(PID.TID 0000.0001)                 5.042981208886097E-06,      /* K =  4 */
(PID.TID 0000.0001)                 6.524166098263503E-05       /* K =  5 */
(PID.TID 0000.0001)     ;
(PID.TID 0000.0001) rotateGrid = /* use rotated grid ( True/False ) */
(PID.TID 0000.0001)                   F
(PID.TID 0000.0001)     ;
(PID.TID 0000.0001) phiEuler = /* Euler angle, rotation about original z-coordinate [rad] */
(PID.TID 0000.0001)                 0.000000000000000E+00
(PID.TID 0000.0001)     ;
(PID.TID 0000.0001) thetaEuler = /* Euler angle, rotation about new x-coordinate [rad] */
(PID.TID 0000.0001)                 0.000000000000000E+00
(PID.TID 0000.0001)     ;
(PID.TID 0000.0001) psiEuler = /* Euler angle, rotation about new z-coordinate [rad] */
(PID.TID 0000.0001)                 0.000000000000000E+00
(PID.TID 0000.0001)     ;
(PID.TID 0000.0001) dxF =  /* dxF(:,1,:,1) ( units: m ) */
(PID.TID 0000.0001)                 1.202082051331828E+05,      /* I =  1 */
(PID.TID 0000.0001)                 1.563594089971120E+05,      /* I =  2 */
(PID.TID 0000.0001)                 1.835530058121492E+05,      /* I =  3 */
(PID.TID 0000.0001)      . . .
(PID.TID 0000.0001)                 2.978501920522794E+05,      /* I = 46 */
(PID.TID 0000.0001)                 3.000967749619962E+05,      /* I = 47 */
(PID.TID 0000.0001)                 3.012190981969055E+05,      /* I = 48 */
(PID.TID 0000.0001)                 3.012190981969055E+05,      /* I = 49 */
(PID.TID 0000.0001)                 3.000967749619962E+05,      /* I = 50 */
(PID.TID 0000.0001)                 2.978501920522794E+05,      /* I = 51 */
(PID.TID 0000.0001)      . . .
(PID.TID 0000.0001)                 1.835530058121492E+05,      /* I = 94 */
(PID.TID 0000.0001)                 1.563594089971120E+05,      /* I = 95 */
(PID.TID 0000.0001)                 1.202082051331828E+05,      /* I = 96 */
(PID.TID 0000.0001)                 1.202082051331828E+05,      /* I = 97 */
(PID.TID 0000.0001)                 1.563594089971120E+05,      /* I = 98 */
(PID.TID 0000.0001)                 1.835530058121492E+05,      /* I = 99 */
(PID.TID 0000.0001)      . . .
(PID.TID 0000.0001)                 2.978501920522794E+05,      /* I =142 */
(PID.TID 0000.0001)                 3.000967749619962E+05,      /* I =143 */
(PID.TID 0000.0001)                 3.012190981969055E+05,      /* I =144 */
(PID.TID 0000.0001)                 3.012190981969055E+05,      /* I =145 */
(PID.TID 0000.0001)                 3.000967749619962E+05,      /* I =146 */
(PID.TID 0000.0001)                 2.978501920522794E+05,      /* I =147 */
(PID.TID 0000.0001)      . . .
(PID.TID 0000.0001)                 1.835530058121492E+05,      /* I =190 */
(PID.TID 0000.0001)                 1.563594089971120E+05,      /* I =191 */
(PID.TID 0000.0001)                 1.202082051331828E+05       /* I =192 */
(PID.TID 0000.0001)     ;
(PID.TID 0000.0001) dxF =  /* dxF(1,:,1,:) ( units: m ) */
(PID.TID 0000.0001)                 1.202082051331828E+05,      /* J =  1 */
(PID.TID 0000.0001)                 1.572908084538706E+05,      /* J =  2 */
(PID.TID 0000.0001)                 1.840412227747703E+05,      /* J =  3 */
(PID.TID 0000.0001)                 2.048868197919576E+05,      /* J =  4 */
(PID.TID 0000.0001)                 2.220405216043041E+05,      /* J =  5 */
(PID.TID 0000.0001)                 2.365892017348392E+05,      /* J =  6 */
(PID.TID 0000.0001)                 2.491250781852558E+05,      /* J =  7 */
(PID.TID 0000.0001)                 2.599949918261881E+05,      /* J =  8 */
(PID.TID 0000.0001)                 2.694110134598581E+05,      /* J =  9 */
(PID.TID 0000.0001)                 2.775055554645015E+05,      /* J = 10 */
(PID.TID 0000.0001)                 2.843615645344775E+05,      /* J = 11 */
(PID.TID 0000.0001)                 2.900303768613599E+05,      /* J = 12 */
(PID.TID 0000.0001)                 2.945429307892709E+05,      /* J = 13 */
(PID.TID 0000.0001)                 2.979171143158405E+05,      /* J = 14 */
(PID.TID 0000.0001)                 3.001626787528886E+05,      /* J = 15 */
(PID.TID 0000.0001)     2 @  3.012844832048790E+05,             /* J = 16: 17 */
(PID.TID 0000.0001)                 3.001626787528886E+05,      /* J = 18 */
(PID.TID 0000.0001)                 2.979171143158405E+05,      /* J = 19 */
(PID.TID 0000.0001)                 2.945429307892709E+05,      /* J = 20 */
(PID.TID 0000.0001)                 2.900303768613599E+05,      /* J = 21 */
(PID.TID 0000.0001)                 2.843615645344775E+05,      /* J = 22 */
(PID.TID 0000.0001)                 2.775055554645015E+05,      /* J = 23 */
(PID.TID 0000.0001)                 2.694110134598581E+05,      /* J = 24 */
(PID.TID 0000.0001)                 2.599949918261881E+05,      /* J = 25 */
(PID.TID 0000.0001)                 2.491250781852558E+05,      /* J = 26 */
(PID.TID 0000.0001)                 2.365892017348392E+05,      /* J = 27 */
(PID.TID 0000.0001)                 2.220405216043041E+05,      /* J = 28 */
(PID.TID 0000.0001)                 2.048868197919576E+05,      /* J = 29 */
(PID.TID 0000.0001)                 1.840412227747703E+05,      /* J = 30 */
(PID.TID 0000.0001)                 1.572908084538706E+05,      /* J = 31 */
(PID.TID 0000.0001)                 1.202082051331828E+05       /* J = 32 */
(PID.TID 0000.0001)     ;
(PID.TID 0000.0001) dyF =  /* dyF(:,1,:,1) ( units: m ) */
(PID.TID 0000.0001)                 1.202082051331828E+05,      /* I =  1 */
(PID.TID 0000.0001)                 1.572908084538706E+05,      /* I =  2 */
(PID.TID 0000.0001)                 1.840412227747703E+05,      /* I =  3 */
(PID.TID 0000.0001)      . . .
(PID.TID 0000.0001)                 2.979171143158405E+05,      /* I = 46 */
(PID.TID 0000.0001)                 3.001626787528886E+05,      /* I = 47 */
(PID.TID 0000.0001)                 3.012844832048790E+05,      /* I = 48 */
(PID.TID 0000.0001)                 3.012844832048790E+05,      /* I = 49 */
(PID.TID 0000.0001)                 3.001626787528886E+05,      /* I = 50 */
(PID.TID 0000.0001)                 2.979171143158405E+05,      /* I = 51 */
(PID.TID 0000.0001)      . . .
(PID.TID 0000.0001)                 1.840412227747703E+05,      /* I = 94 */
(PID.TID 0000.0001)                 1.572908084538706E+05,      /* I = 95 */
(PID.TID 0000.0001)                 1.202082051331828E+05,      /* I = 96 */
(PID.TID 0000.0001)                 1.202082051331828E+05,      /* I = 97 */
(PID.TID 0000.0001)                 1.572908084538706E+05,      /* I = 98 */
(PID.TID 0000.0001)                 1.840412227747703E+05,      /* I = 99 */
(PID.TID 0000.0001)      . . .
(PID.TID 0000.0001)                 2.979171143158405E+05,      /* I =142 */
(PID.TID 0000.0001)                 3.001626787528886E+05,      /* I =143 */
(PID.TID 0000.0001)                 3.012844832048790E+05,      /* I =144 */
(PID.TID 0000.0001)                 3.012844832048790E+05,      /* I =145 */
(PID.TID 0000.0001)                 3.001626787528886E+05,      /* I =146 */
(PID.TID 0000.0001)                 2.979171143158405E+05,      /* I =147 */
(PID.TID 0000.0001)      . . .
(PID.TID 0000.0001)                 1.840412227747703E+05,      /* I =190 */
(PID.TID 0000.0001)                 1.572908084538706E+05,      /* I =191 */
(PID.TID 0000.0001)                 1.202082051331828E+05       /* I =192 */
(PID.TID 0000.0001)     ;
(PID.TID 0000.0001) dyF =  /* dyF(1,:,1,:) ( units: m ) */
(PID.TID 0000.0001)                 1.202082051331828E+05,      /* J =  1 */
(PID.TID 0000.0001)                 1.563594089971120E+05,      /* J =  2 */
(PID.TID 0000.0001)                 1.835530058121492E+05,      /* J =  3 */
(PID.TID 0000.0001)                 2.045883481718707E+05,      /* J =  4 */
(PID.TID 0000.0001)                 2.218350349844185E+05,      /* J =  5 */
(PID.TID 0000.0001)                 2.364352994647058E+05,      /* J =  6 */
(PID.TID 0000.0001)                 2.490022710862746E+05,      /* J =  7 */
(PID.TID 0000.0001)                 2.598919724358304E+05,      /* J =  8 */
(PID.TID 0000.0001)                 2.693210245495156E+05,      /* J =  9 */
(PID.TID 0000.0001)                 2.774243179696503E+05,      /* J = 10 */
(PID.TID 0000.0001)                 2.842862532064524E+05,      /* J = 11 */
(PID.TID 0000.0001)                 2.899590699694043E+05,      /* J = 12 */
(PID.TID 0000.0001)                 2.944742915095688E+05,      /* J = 13 */
(PID.TID 0000.0001)                 2.978501920522794E+05,      /* J = 14 */
(PID.TID 0000.0001)                 3.000967749619962E+05,      /* J = 15 */
(PID.TID 0000.0001)     2 @  3.012190981969055E+05,             /* J = 16: 17 */
(PID.TID 0000.0001)                 3.000967749619962E+05,      /* J = 18 */
(PID.TID 0000.0001)                 2.978501920522794E+05,      /* J = 19 */
(PID.TID 0000.0001)                 2.944742915095688E+05,      /* J = 20 */
(PID.TID 0000.0001)                 2.899590699694043E+05,      /* J = 21 */
(PID.TID 0000.0001)                 2.842862532064524E+05,      /* J = 22 */
(PID.TID 0000.0001)                 2.774243179696503E+05,      /* J = 23 */
(PID.TID 0000.0001)                 2.693210245495156E+05,      /* J = 24 */
(PID.TID 0000.0001)                 2.598919724358304E+05,      /* J = 25 */
(PID.TID 0000.0001)                 2.490022710862746E+05,      /* J = 26 */
(PID.TID 0000.0001)                 2.364352994647058E+05,      /* J = 27 */
(PID.TID 0000.0001)                 2.218350349844185E+05,      /* J = 28 */
(PID.TID 0000.0001)                 2.045883481718707E+05,      /* J = 29 */
(PID.TID 0000.0001)                 1.835530058121492E+05,      /* J = 30 */
(PID.TID 0000.0001)                 1.563594089971120E+05,      /* J = 31 */
(PID.TID 0000.0001)                 1.202082051331828E+05       /* J = 32 */
(PID.TID 0000.0001)     ;
(PID.TID 0000.0001) dxG =  /* dxG(:,1,:,1) ( units: m ) */
(PID.TID 0000.0001)                 1.009837800879055E+05,      /* I =  1 */
(PID.TID 0000.0001)                 1.534505834330338E+05,      /* I =  2 */
(PID.TID 0000.0001)                 1.823321598773926E+05,      /* I =  3 */
(PID.TID 0000.0001)      . . .
(PID.TID 0000.0001)                 2.977867909042096E+05,      /* I = 46 */
(PID.TID 0000.0001)                 3.000380090330854E+05,      /* I = 47 */
(PID.TID 0000.0001)                 3.011625828699101E+05,      /* I = 48 */
(PID.TID 0000.0001)                 3.011625828699101E+05,      /* I = 49 */
(PID.TID 0000.0001)                 3.000380090330854E+05,      /* I = 50 */
(PID.TID 0000.0001)                 2.977867909042096E+05,      /* I = 51 */
(PID.TID 0000.0001)      . . .
(PID.TID 0000.0001)                 1.823321598773926E+05,      /* I = 94 */
(PID.TID 0000.0001)                 1.534505834330338E+05,      /* I = 95 */
(PID.TID 0000.0001)                 1.009837800879055E+05,      /* I = 96 */
(PID.TID 0000.0001)                 1.009837800879055E+05,      /* I = 97 */
(PID.TID 0000.0001)                 1.534505834330338E+05,      /* I = 98 */
(PID.TID 0000.0001)                 1.823321598773926E+05,      /* I = 99 */
(PID.TID 0000.0001)      . . .
(PID.TID 0000.0001)                 2.977867909042096E+05,      /* I =142 */
(PID.TID 0000.0001)                 3.000380090330854E+05,      /* I =143 */
(PID.TID 0000.0001)                 3.011625828699101E+05,      /* I =144 */
(PID.TID 0000.0001)                 3.011625828699101E+05,      /* I =145 */
(PID.TID 0000.0001)                 3.000380090330854E+05,      /* I =146 */
(PID.TID 0000.0001)                 2.977867909042096E+05,      /* I =147 */
(PID.TID 0000.0001)      . . .
(PID.TID 0000.0001)                 1.823321598773926E+05,      /* I =190 */
(PID.TID 0000.0001)                 1.534505834330338E+05,      /* I =191 */
(PID.TID 0000.0001)                 1.009837800879055E+05       /* I =192 */
(PID.TID 0000.0001)     ;
(PID.TID 0000.0001) dxG =  /* dxG(1,:,1,:) ( units: m ) */
(PID.TID 0000.0001)                 1.009837800879055E+05,      /* J =  1 */
(PID.TID 0000.0001)                 1.403701524205398E+05,      /* J =  2 */
(PID.TID 0000.0001)                 1.716197227386011E+05,      /* J =  3 */
(PID.TID 0000.0001)                 1.950254041626018E+05,      /* J =  4 */
(PID.TID 0000.0001)                 2.138410773065497E+05,      /* J =  5 */
(PID.TID 0000.0001)                 2.295958105911512E+05,      /* J =  6 */
(PID.TID 0000.0001)                 2.430829951739083E+05,      /* J =  7 */
(PID.TID 0000.0001)                 2.547526806712889E+05,      /* J =  8 */
(PID.TID 0000.0001)                 2.648750305193301E+05,      /* J =  9 */
(PID.TID 0000.0001)                 2.736173771018112E+05,      /* J = 10 */
(PID.TID 0000.0001)                 2.810845823202647E+05,      /* J = 11 */
(PID.TID 0000.0001)                 2.873420591008078E+05,      /* J = 12 */
(PID.TID 0000.0001)                 2.924298293668651E+05,      /* J = 13 */
(PID.TID 0000.0001)                 2.963715635865306E+05,      /* J = 14 */
(PID.TID 0000.0001)                 2.991805843171258E+05,      /* J = 15 */
(PID.TID 0000.0001)                 3.008638765647886E+05,      /* J = 16 */
(PID.TID 0000.0001)                 3.014246674484008E+05,      /* J = 17 */
(PID.TID 0000.0001)                 3.008638765647886E+05,      /* J = 18 */
(PID.TID 0000.0001)                 2.991805843171258E+05,      /* J = 19 */
(PID.TID 0000.0001)                 2.963715635865306E+05,      /* J = 20 */
(PID.TID 0000.0001)                 2.924298293668651E+05,      /* J = 21 */
(PID.TID 0000.0001)                 2.873420591008078E+05,      /* J = 22 */
(PID.TID 0000.0001)                 2.810845823202647E+05,      /* J = 23 */
(PID.TID 0000.0001)                 2.736173771018112E+05,      /* J = 24 */
(PID.TID 0000.0001)                 2.648750305193301E+05,      /* J = 25 */
(PID.TID 0000.0001)                 2.547526806712889E+05,      /* J = 26 */
(PID.TID 0000.0001)                 2.430829951739083E+05,      /* J = 27 */
(PID.TID 0000.0001)                 2.295958105911512E+05,      /* J = 28 */
(PID.TID 0000.0001)                 2.138410773065497E+05,      /* J = 29 */
(PID.TID 0000.0001)                 1.950254041626018E+05,      /* J = 30 */
(PID.TID 0000.0001)                 1.716197227386011E+05,      /* J = 31 */
(PID.TID 0000.0001)                 1.403701524205398E+05       /* J = 32 */
(PID.TID 0000.0001)     ;
(PID.TID 0000.0001) dyG =  /* dyG(:,1,:,1) ( units: m ) */
(PID.TID 0000.0001)                 1.009837800879055E+05,      /* I =  1 */
(PID.TID 0000.0001)                 1.403701524205398E+05,      /* I =  2 */
(PID.TID 0000.0001)                 1.716197227386011E+05,      /* I =  3 */
(PID.TID 0000.0001)      . . .
(PID.TID 0000.0001)                 2.963715635865306E+05,      /* I = 46 */
(PID.TID 0000.0001)                 2.991805843171258E+05,      /* I = 47 */
(PID.TID 0000.0001)                 3.008638765647886E+05,      /* I = 48 */
(PID.TID 0000.0001)                 3.014246674484008E+05,      /* I = 49 */
(PID.TID 0000.0001)                 3.008638765647886E+05,      /* I = 50 */
(PID.TID 0000.0001)                 2.991805843171258E+05,      /* I = 51 */
(PID.TID 0000.0001)      . . .
(PID.TID 0000.0001)                 1.950254041626018E+05,      /* I = 94 */
(PID.TID 0000.0001)                 1.716197227386011E+05,      /* I = 95 */
(PID.TID 0000.0001)                 1.403701524205398E+05,      /* I = 96 */
(PID.TID 0000.0001)                 1.009837800879055E+05,      /* I = 97 */
(PID.TID 0000.0001)                 1.403701524205398E+05,      /* I = 98 */
(PID.TID 0000.0001)                 1.716197227386011E+05,      /* I = 99 */
(PID.TID 0000.0001)      . . .
(PID.TID 0000.0001)                 2.963715635865306E+05,      /* I =142 */
(PID.TID 0000.0001)                 2.991805843171258E+05,      /* I =143 */
(PID.TID 0000.0001)                 3.008638765647886E+05,      /* I =144 */
(PID.TID 0000.0001)                 3.014246674484008E+05,      /* I =145 */
(PID.TID 0000.0001)                 3.008638765647886E+05,      /* I =146 */
(PID.TID 0000.0001)                 2.991805843171258E+05,      /* I =147 */
(PID.TID 0000.0001)      . . .
(PID.TID 0000.0001)                 1.950254041626018E+05,      /* I =190 */
(PID.TID 0000.0001)                 1.716197227386011E+05,      /* I =191 */
(PID.TID 0000.0001)                 1.403701524205398E+05       /* I =192 */
(PID.TID 0000.0001)     ;
(PID.TID 0000.0001) dyG =  /* dyG(1,:,1,:) ( units: m ) */
(PID.TID 0000.0001)                 1.009837800879055E+05,      /* J =  1 */
(PID.TID 0000.0001)                 1.534505834330338E+05,      /* J =  2 */
(PID.TID 0000.0001)                 1.823321598773926E+05,      /* J =  3 */
(PID.TID 0000.0001)                 2.038999045536999E+05,      /* J =  4 */
(PID.TID 0000.0001)                 2.213884732245467E+05,      /* J =  5 */
(PID.TID 0000.0001)                 2.361211699596122E+05,      /* J =  6 */
(PID.TID 0000.0001)                 2.487693460283865E+05,      /* J =  7 */
(PID.TID 0000.0001)                 2.597126963772147E+05,      /* J =  8 */
(PID.TID 0000.0001)                 2.691790288994575E+05,      /* J =  9 */
(PID.TID 0000.0001)                 2.773091043277394E+05,      /* J = 10 */
(PID.TID 0000.0001)                 2.841906470085516E+05,      /* J = 11 */
(PID.TID 0000.0001)                 2.898778860929753E+05,      /* J = 12 */
(PID.TID 0000.0001)                 2.944035815526416E+05,      /* J = 13 */
(PID.TID 0000.0001)                 2.977867909042096E+05,      /* J = 14 */
(PID.TID 0000.0001)                 3.000380090330854E+05,      /* J = 15 */
(PID.TID 0000.0001)     2 @  3.011625828699101E+05,             /* J = 16: 17 */
(PID.TID 0000.0001)                 3.000380090330854E+05,      /* J = 18 */
(PID.TID 0000.0001)                 2.977867909042096E+05,      /* J = 19 */
(PID.TID 0000.0001)                 2.944035815526416E+05,      /* J = 20 */
(PID.TID 0000.0001)                 2.898778860929753E+05,      /* J = 21 */
(PID.TID 0000.0001)                 2.841906470085516E+05,      /* J = 22 */
(PID.TID 0000.0001)                 2.773091043277394E+05,      /* J = 23 */
(PID.TID 0000.0001)                 2.691790288994575E+05,      /* J = 24 */
(PID.TID 0000.0001)                 2.597126963772147E+05,      /* J = 25 */
(PID.TID 0000.0001)                 2.487693460283865E+05,      /* J = 26 */
(PID.TID 0000.0001)                 2.361211699596122E+05,      /* J = 27 */
(PID.TID 0000.0001)                 2.213884732245467E+05,      /* J = 28 */
(PID.TID 0000.0001)                 2.038999045536999E+05,      /* J = 29 */
(PID.TID 0000.0001)                 1.823321598773926E+05,      /* J = 30 */
(PID.TID 0000.0001)                 1.534505834330338E+05,      /* J = 31 */
(PID.TID 0000.0001)                 1.009837800879055E+05       /* J = 32 */
(PID.TID 0000.0001)     ;
(PID.TID 0000.0001) dxC =  /* dxC(:,1,:,1) ( units: m ) */
(PID.TID 0000.0001)                 1.114203141013064E+05,      /* I =  1 */
(PID.TID 0000.0001)                 1.391343389937106E+05,      /* I =  2 */
(PID.TID 0000.0001)                 1.709574999026266E+05,      /* I =  3 */
(PID.TID 0000.0001)      . . .
(PID.TID 0000.0001)                 2.963038832565530E+05,      /* I = 46 */
(PID.TID 0000.0001)                 2.991142470004740E+05,      /* I = 47 */
(PID.TID 0000.0001)                 3.007982711627968E+05,      /* I = 48 */
(PID.TID 0000.0001)                 3.013593857228136E+05,      /* I = 49 */
(PID.TID 0000.0001)                 3.007982711627968E+05,      /* I = 50 */
(PID.TID 0000.0001)                 2.991142470004740E+05,      /* I = 51 */
(PID.TID 0000.0001)      . . .
(PID.TID 0000.0001)                 1.946503699269892E+05,      /* I = 94 */
(PID.TID 0000.0001)                 1.709574999026266E+05,      /* I = 95 */
(PID.TID 0000.0001)                 1.391343389937106E+05,      /* I = 96 */
(PID.TID 0000.0001)                 1.114203141013064E+05,      /* I = 97 */
(PID.TID 0000.0001)                 1.391343389937106E+05,      /* I = 98 */
(PID.TID 0000.0001)                 1.709574999026266E+05,      /* I = 99 */
(PID.TID 0000.0001)      . . .
(PID.TID 0000.0001)                 2.963038832565530E+05,      /* I =142 */
(PID.TID 0000.0001)                 2.991142470004740E+05,      /* I =143 */
(PID.TID 0000.0001)                 3.007982711627968E+05,      /* I =144 */
(PID.TID 0000.0001)                 3.013593857228136E+05,      /* I =145 */
(PID.TID 0000.0001)                 3.007982711627968E+05,      /* I =146 */
(PID.TID 0000.0001)                 2.991142470004740E+05,      /* I =147 */
(PID.TID 0000.0001)      . . .
(PID.TID 0000.0001)                 1.946503699269892E+05,      /* I =190 */
(PID.TID 0000.0001)                 1.709574999026266E+05,      /* I =191 */
(PID.TID 0000.0001)                 1.391343389937106E+05       /* I =192 */
(PID.TID 0000.0001)     ;
(PID.TID 0000.0001) dxC =  /* dxC(1,:,1,:) ( units: m ) */
(PID.TID 0000.0001)                 1.114203141013064E+05,      /* J =  1 */
(PID.TID 0000.0001)                 1.549545757850771E+05,      /* J =  2 */
(PID.TID 0000.0001)                 1.829777599966776E+05,      /* J =  3 */
(PID.TID 0000.0001)                 2.042717761866506E+05,      /* J =  4 */
(PID.TID 0000.0001)                 2.216367828252819E+05,      /* J =  5 */
(PID.TID 0000.0001)                 2.363029564123586E+05,      /* J =  6 */
(PID.TID 0000.0001)                 2.489113743322025E+05,      /* J =  7 */
(PID.TID 0000.0001)                 2.598293319150326E+05,      /* J =  8 */
(PID.TID 0000.0001)                 2.692787333338535E+05,      /* J =  9 */
(PID.TID 0000.0001)                 2.773972106720365E+05,      /* J = 10 */
(PID.TID 0000.0001)                 2.842706922224557E+05,      /* J = 11 */
(PID.TID 0000.0001)                 2.899523122489403E+05,      /* J = 12 */
(PID.TID 0000.0001)                 2.944741346384699E+05,      /* J = 13 */
(PID.TID 0000.0001)                 2.978547649292580E+05,      /* J = 14 */
(PID.TID 0000.0001)                 3.001044073506459E+05,      /* J = 15 */
(PID.TID 0000.0001)     2 @  3.012281885409289E+05,             /* J = 16: 17 */
(PID.TID 0000.0001)                 3.001044073506459E+05,      /* J = 18 */
(PID.TID 0000.0001)                 2.978547649292580E+05,      /* J = 19 */
(PID.TID 0000.0001)                 2.944741346384699E+05,      /* J = 20 */
(PID.TID 0000.0001)                 2.899523122489403E+05,      /* J = 21 */
(PID.TID 0000.0001)                 2.842706922224557E+05,      /* J = 22 */
(PID.TID 0000.0001)                 2.773972106720365E+05,      /* J = 23 */
(PID.TID 0000.0001)                 2.692787333338535E+05,      /* J = 24 */
(PID.TID 0000.0001)                 2.598293319150326E+05,      /* J = 25 */
(PID.TID 0000.0001)                 2.489113743322025E+05,      /* J = 26 */
(PID.TID 0000.0001)                 2.363029564123586E+05,      /* J = 27 */
(PID.TID 0000.0001)                 2.216367828252819E+05,      /* J = 28 */
(PID.TID 0000.0001)                 2.042717761866506E+05,      /* J = 29 */
(PID.TID 0000.0001)                 1.829777599966776E+05,      /* J = 30 */
(PID.TID 0000.0001)                 1.549545757850771E+05,      /* J = 31 */
(PID.TID 0000.0001)                 1.114203141013064E+05       /* J = 32 */
(PID.TID 0000.0001)     ;
(PID.TID 0000.0001) dyC =  /* dyC(:,1,:,1) ( units: m ) */
(PID.TID 0000.0001)                 1.114203141013064E+05,      /* I =  1 */
(PID.TID 0000.0001)                 1.549545757850771E+05,      /* I =  2 */
(PID.TID 0000.0001)                 1.829777599966776E+05,      /* I =  3 */
(PID.TID 0000.0001)      . . .
(PID.TID 0000.0001)                 2.978547649292580E+05,      /* I = 46 */
(PID.TID 0000.0001)                 3.001044073506459E+05,      /* I = 47 */
(PID.TID 0000.0001)                 3.012281885409289E+05,      /* I = 48 */
(PID.TID 0000.0001)                 3.012281885409289E+05,      /* I = 49 */
(PID.TID 0000.0001)                 3.001044073506459E+05,      /* I = 50 */
(PID.TID 0000.0001)                 2.978547649292580E+05,      /* I = 51 */
(PID.TID 0000.0001)      . . .
(PID.TID 0000.0001)                 1.829777599966776E+05,      /* I = 94 */
(PID.TID 0000.0001)                 1.549545757850771E+05,      /* I = 95 */
(PID.TID 0000.0001)                 1.114203141013064E+05,      /* I = 96 */
(PID.TID 0000.0001)                 1.114203141013064E+05,      /* I = 97 */
(PID.TID 0000.0001)                 1.549545757850771E+05,      /* I = 98 */
(PID.TID 0000.0001)                 1.829777599966776E+05,      /* I = 99 */
(PID.TID 0000.0001)      . . .
(PID.TID 0000.0001)                 2.978547649292580E+05,      /* I =142 */
(PID.TID 0000.0001)                 3.001044073506459E+05,      /* I =143 */
(PID.TID 0000.0001)                 3.012281885409289E+05,      /* I =144 */
(PID.TID 0000.0001)                 3.012281885409289E+05,      /* I =145 */
(PID.TID 0000.0001)                 3.001044073506459E+05,      /* I =146 */
(PID.TID 0000.0001)                 2.978547649292580E+05,      /* I =147 */
(PID.TID 0000.0001)      . . .
(PID.TID 0000.0001)                 1.829777599966776E+05,      /* I =190 */
(PID.TID 0000.0001)                 1.549545757850771E+05,      /* I =191 */
(PID.TID 0000.0001)                 1.114203141013064E+05       /* I =192 */
(PID.TID 0000.0001)     ;
(PID.TID 0000.0001) dyC =  /* dyC(1,:,1,:) ( units: m ) */
(PID.TID 0000.0001)                 1.114203141013064E+05,      /* J =  1 */
(PID.TID 0000.0001)                 1.391343389937106E+05,      /* J =  2 */
(PID.TID 0000.0001)                 1.709574999026266E+05,      /* J =  3 */
(PID.TID 0000.0001)                 1.946503699269892E+05,      /* J =  4 */
(PID.TID 0000.0001)                 2.135964483342134E+05,      /* J =  5 */
(PID.TID 0000.0001)                 2.294195678257306E+05,      /* J =  6 */
(PID.TID 0000.0001)                 2.429464709770498E+05,      /* J =  7 */
(PID.TID 0000.0001)                 2.546408290696998E+05,      /* J =  8 */
(PID.TID 0000.0001)                 2.647791839299727E+05,      /* J =  9 */
(PID.TID 0000.0001)                 2.735321911346108E+05,      /* J = 10 */
(PID.TID 0000.0001)                 2.810065951609633E+05,      /* J = 11 */
(PID.TID 0000.0001)                 2.872689479506990E+05,      /* J = 12 */
(PID.TID 0000.0001)                 2.923599955312932E+05,      /* J = 13 */
(PID.TID 0000.0001)                 2.963038832565530E+05,      /* J = 14 */
(PID.TID 0000.0001)                 2.991142470004740E+05,      /* J = 15 */
(PID.TID 0000.0001)                 3.007982711627968E+05,      /* J = 16 */
(PID.TID 0000.0001)                 3.013593857228136E+05,      /* J = 17 */
(PID.TID 0000.0001)                 3.007982711627968E+05,      /* J = 18 */
(PID.TID 0000.0001)                 2.991142470004740E+05,      /* J = 19 */
(PID.TID 0000.0001)                 2.963038832565530E+05,      /* J = 20 */
(PID.TID 0000.0001)                 2.923599955312932E+05,      /* J = 21 */
(PID.TID 0000.0001)                 2.872689479506990E+05,      /* J = 22 */
(PID.TID 0000.0001)                 2.810065951609633E+05,      /* J = 23 */
(PID.TID 0000.0001)                 2.735321911346108E+05,      /* J = 24 */
(PID.TID 0000.0001)                 2.647791839299727E+05,      /* J = 25 */
(PID.TID 0000.0001)                 2.546408290696998E+05,      /* J = 26 */
(PID.TID 0000.0001)                 2.429464709770498E+05,      /* J = 27 */
(PID.TID 0000.0001)                 2.294195678257306E+05,      /* J = 28 */
(PID.TID 0000.0001)                 2.135964483342134E+05,      /* J = 29 */
(PID.TID 0000.0001)                 1.946503699269892E+05,      /* J = 30 */
(PID.TID 0000.0001)                 1.709574999026266E+05,      /* J = 31 */
(PID.TID 0000.0001)                 1.391343389937106E+05       /* J = 32 */
(PID.TID 0000.0001)     ;
(PID.TID 0000.0001) dxV =  /* dxV(:,1,:,1) ( units: m ) */
(PID.TID 0000.0001)                 8.015229982413632E+04,      /* I =  1 */
(PID.TID 0000.0001)                 1.333130744933864E+05,      /* I =  2 */
(PID.TID 0000.0001)                 1.691744868129062E+05,      /* I =  3 */
(PID.TID 0000.0001)      . . .
(PID.TID 0000.0001)                 2.962371870847826E+05,      /* I = 46 */
(PID.TID 0000.0001)                 2.990534755671296E+05,      /* I = 47 */
(PID.TID 0000.0001)                 3.007409169495504E+05,      /* I = 48 */
(PID.TID 0000.0001)                 3.013031486919771E+05,      /* I = 49 */
(PID.TID 0000.0001)                 3.007409169495504E+05,      /* I = 50 */
(PID.TID 0000.0001)                 2.990534755671296E+05,      /* I = 51 */
(PID.TID 0000.0001)      . . .
(PID.TID 0000.0001)                 1.937548202849060E+05,      /* I = 94 */
(PID.TID 0000.0001)                 1.691744868129062E+05,      /* I = 95 */
(PID.TID 0000.0001)                 1.333130744933864E+05,      /* I = 96 */
(PID.TID 0000.0001)                 8.015229982413632E+04,      /* I = 97 */
(PID.TID 0000.0001)                 1.333130744933864E+05,      /* I = 98 */
(PID.TID 0000.0001)                 1.691744868129062E+05,      /* I = 99 */
(PID.TID 0000.0001)      . . .
(PID.TID 0000.0001)                 2.962371870847826E+05,      /* I =142 */
(PID.TID 0000.0001)                 2.990534755671296E+05,      /* I =143 */
(PID.TID 0000.0001)                 3.007409169495504E+05,      /* I =144 */
(PID.TID 0000.0001)                 3.013031486919771E+05,      /* I =145 */
(PID.TID 0000.0001)                 3.007409169495504E+05,      /* I =146 */
(PID.TID 0000.0001)                 2.990534755671296E+05,      /* I =147 */
(PID.TID 0000.0001)      . . .
(PID.TID 0000.0001)                 1.937548202849060E+05,      /* I =190 */
(PID.TID 0000.0001)                 1.691744868129062E+05,      /* I =191 */
(PID.TID 0000.0001)                 1.333130744933864E+05       /* I =192 */
(PID.TID 0000.0001)     ;
(PID.TID 0000.0001) dxV =  /* dxV(1,:,1,:) ( units: m ) */
(PID.TID 0000.0001)                 8.015229982413632E+04,      /* J =  1 */
(PID.TID 0000.0001)                 1.362652340208229E+05,      /* J =  2 */
(PID.TID 0000.0001)                 1.701080315742101E+05,      /* J =  3 */
(PID.TID 0000.0001)                 1.942331448101592E+05,      /* J =  4 */
(PID.TID 0000.0001)                 2.133486626971531E+05,      /* J =  5 */
(PID.TID 0000.0001)                 2.292584591272880E+05,      /* J =  6 */
(PID.TID 0000.0001)                 2.428369969078989E+05,      /* J =  7 */
(PID.TID 0000.0001)                 2.545652950875683E+05,      /* J =  8 */
(PID.TID 0000.0001)                 2.647274964828301E+05,      /* J =  9 */
(PID.TID 0000.0001)                 2.734980225206389E+05,      /* J = 10 */
(PID.TID 0000.0001)                 2.809856491525217E+05,      /* J = 11 */
(PID.TID 0000.0001)                 2.872580915202295E+05,      /* J = 12 */
(PID.TID 0000.0001)                 2.923567890694162E+05,      /* J = 13 */
(PID.TID 0000.0001)                 2.963063101754721E+05,      /* J = 14 */
(PID.TID 0000.0001)                 2.991205495886625E+05,      /* J = 15 */
(PID.TID 0000.0001)                 3.008068453676764E+05,      /* J = 16 */
(PID.TID 0000.0001)                 3.013686170436881E+05,      /* J = 17 */
(PID.TID 0000.0001)                 3.008068453676764E+05,      /* J = 18 */
(PID.TID 0000.0001)                 2.991205495886625E+05,      /* J = 19 */
(PID.TID 0000.0001)                 2.963063101754721E+05,      /* J = 20 */
(PID.TID 0000.0001)                 2.923567890694162E+05,      /* J = 21 */
(PID.TID 0000.0001)                 2.872580915202295E+05,      /* J = 22 */
(PID.TID 0000.0001)                 2.809856491525217E+05,      /* J = 23 */
(PID.TID 0000.0001)                 2.734980225206389E+05,      /* J = 24 */
(PID.TID 0000.0001)                 2.647274964828301E+05,      /* J = 25 */
(PID.TID 0000.0001)                 2.545652950875683E+05,      /* J = 26 */
(PID.TID 0000.0001)                 2.428369969078989E+05,      /* J = 27 */
(PID.TID 0000.0001)                 2.292584591272880E+05,      /* J = 28 */
(PID.TID 0000.0001)                 2.133486626971531E+05,      /* J = 29 */
(PID.TID 0000.0001)                 1.942331448101592E+05,      /* J = 30 */
(PID.TID 0000.0001)                 1.701080315742101E+05,      /* J = 31 */
(PID.TID 0000.0001)                 1.362652340208229E+05       /* J = 32 */
(PID.TID 0000.0001)     ;
(PID.TID 0000.0001) dyU =  /* dyU(:,1,:,1) ( units: m ) */
(PID.TID 0000.0001)                 8.015229982413632E+04,      /* I =  1 */
(PID.TID 0000.0001)                 1.362652340208229E+05,      /* I =  2 */
(PID.TID 0000.0001)                 1.701080315742101E+05,      /* I =  3 */
(PID.TID 0000.0001)      . . .
(PID.TID 0000.0001)                 2.963063101754721E+05,      /* I = 46 */
(PID.TID 0000.0001)                 2.991205495886625E+05,      /* I = 47 */
(PID.TID 0000.0001)                 3.008068453676764E+05,      /* I = 48 */
(PID.TID 0000.0001)                 3.013686170436881E+05,      /* I = 49 */
(PID.TID 0000.0001)                 3.008068453676764E+05,      /* I = 50 */
(PID.TID 0000.0001)                 2.991205495886625E+05,      /* I = 51 */
(PID.TID 0000.0001)      . . .
(PID.TID 0000.0001)                 1.942331448101592E+05,      /* I = 94 */
(PID.TID 0000.0001)                 1.701080315742101E+05,      /* I = 95 */
(PID.TID 0000.0001)                 1.362652340208229E+05,      /* I = 96 */
(PID.TID 0000.0001)                 8.015229982413632E+04,      /* I = 97 */
(PID.TID 0000.0001)                 1.362652340208229E+05,      /* I = 98 */
(PID.TID 0000.0001)                 1.701080315742101E+05,      /* I = 99 */
(PID.TID 0000.0001)      . . .
(PID.TID 0000.0001)                 2.963063101754721E+05,      /* I =142 */
(PID.TID 0000.0001)                 2.991205495886625E+05,      /* I =143 */
(PID.TID 0000.0001)                 3.008068453676764E+05,      /* I =144 */
(PID.TID 0000.0001)                 3.013686170436881E+05,      /* I =145 */
(PID.TID 0000.0001)                 3.008068453676764E+05,      /* I =146 */
(PID.TID 0000.0001)                 2.991205495886625E+05,      /* I =147 */
(PID.TID 0000.0001)      . . .
(PID.TID 0000.0001)                 1.942331448101592E+05,      /* I =190 */
(PID.TID 0000.0001)                 1.701080315742101E+05,      /* I =191 */
(PID.TID 0000.0001)                 1.362652340208229E+05       /* I =192 */
(PID.TID 0000.0001)     ;
(PID.TID 0000.0001) dyU =  /* dyU(1,:,1,:) ( units: m ) */
(PID.TID 0000.0001)                 8.015229982413632E+04,      /* J =  1 */
(PID.TID 0000.0001)                 1.333130744933864E+05,      /* J =  2 */
(PID.TID 0000.0001)                 1.691744868129062E+05,      /* J =  3 */
(PID.TID 0000.0001)                 1.937548202849060E+05,      /* J =  4 */
(PID.TID 0000.0001)                 2.130490056267208E+05,      /* J =  5 */
(PID.TID 0000.0001)                 2.290479919481738E+05,      /* J =  6 */
(PID.TID 0000.0001)                 2.426774358027003E+05,      /* J =  7 */
(PID.TID 0000.0001)                 2.544372984215561E+05,      /* J =  8 */
(PID.TID 0000.0001)                 2.646201463834826E+05,      /* J =  9 */
(PID.TID 0000.0001)                 2.734046499619031E+05,      /* J = 10 */
(PID.TID 0000.0001)                 2.809019351693761E+05,      /* J = 11 */
(PID.TID 0000.0001)                 2.871811105274442E+05,      /* J = 12 */
(PID.TID 0000.0001)                 2.922844849381675E+05,      /* J = 13 */
(PID.TID 0000.0001)                 2.962371870847826E+05,      /* J = 14 */
(PID.TID 0000.0001)                 2.990534755671296E+05,      /* J = 15 */
(PID.TID 0000.0001)                 3.007409169495504E+05,      /* J = 16 */
(PID.TID 0000.0001)                 3.013031486919771E+05,      /* J = 17 */
(PID.TID 0000.0001)                 3.007409169495504E+05,      /* J = 18 */
(PID.TID 0000.0001)                 2.990534755671296E+05,      /* J = 19 */
(PID.TID 0000.0001)                 2.962371870847826E+05,      /* J = 20 */
(PID.TID 0000.0001)                 2.922844849381675E+05,      /* J = 21 */
(PID.TID 0000.0001)                 2.871811105274442E+05,      /* J = 22 */
(PID.TID 0000.0001)                 2.809019351693761E+05,      /* J = 23 */
(PID.TID 0000.0001)                 2.734046499619031E+05,      /* J = 24 */
(PID.TID 0000.0001)                 2.646201463834826E+05,      /* J = 25 */
(PID.TID 0000.0001)                 2.544372984215561E+05,      /* J = 26 */
(PID.TID 0000.0001)                 2.426774358027003E+05,      /* J = 27 */
(PID.TID 0000.0001)                 2.290479919481738E+05,      /* J = 28 */
(PID.TID 0000.0001)                 2.130490056267208E+05,      /* J = 29 */
(PID.TID 0000.0001)                 1.937548202849060E+05,      /* J = 30 */
(PID.TID 0000.0001)                 1.691744868129062E+05,      /* J = 31 */
(PID.TID 0000.0001)                 1.333130744933864E+05       /* J = 32 */
(PID.TID 0000.0001)     ;
(PID.TID 0000.0001) rA  =  /* rA (:,1,:,1) ( units: m^2 ) */
(PID.TID 0000.0001)                 1.401900702255611E+10,      /* I =  1 */
(PID.TID 0000.0001)                 2.459906945574446E+10,      /* I =  2 */
(PID.TID 0000.0001)                 3.378518544307869E+10,      /* I =  3 */
(PID.TID 0000.0001)      . . .
(PID.TID 0000.0001)                 8.874277443041928E+10,      /* I = 46 */
(PID.TID 0000.0001)                 9.008620045350865E+10,      /* I = 47 */
(PID.TID 0000.0001)                 9.076111290418457E+10,      /* I = 48 */
(PID.TID 0000.0001)                 9.076111290422060E+10,      /* I = 49 */
(PID.TID 0000.0001)                 9.008620045354469E+10,      /* I = 50 */
(PID.TID 0000.0001)                 8.874277443041928E+10,      /* I = 51 */
(PID.TID 0000.0001)      . . .
(PID.TID 0000.0001)                 3.378518544304265E+10,      /* I = 94 */
(PID.TID 0000.0001)                 2.459906945574446E+10,      /* I = 95 */
(PID.TID 0000.0001)                 1.401900702259215E+10,      /* I = 96 */
(PID.TID 0000.0001)                 1.401900702255611E+10,      /* I = 97 */
(PID.TID 0000.0001)                 2.459906945574446E+10,      /* I = 98 */
(PID.TID 0000.0001)                 3.378518544307869E+10,      /* I = 99 */
(PID.TID 0000.0001)      . . .
(PID.TID 0000.0001)                 8.874277443041928E+10,      /* I =142 */
(PID.TID 0000.0001)                 9.008620045350865E+10,      /* I =143 */
(PID.TID 0000.0001)                 9.076111290418457E+10,      /* I =144 */
(PID.TID 0000.0001)                 9.076111290422060E+10,      /* I =145 */
(PID.TID 0000.0001)                 9.008620045354469E+10,      /* I =146 */
(PID.TID 0000.0001)                 8.874277443041928E+10,      /* I =147 */
(PID.TID 0000.0001)      . . .
(PID.TID 0000.0001)                 3.378518544304265E+10,      /* I =190 */
(PID.TID 0000.0001)                 2.459906945574446E+10,      /* I =191 */
(PID.TID 0000.0001)                 1.401900702259215E+10       /* I =192 */
(PID.TID 0000.0001)     ;
(PID.TID 0000.0001) rA  =  /* rA (1,:,1,:) ( units: m^2 ) */
(PID.TID 0000.0001)                 1.401900702255611E+10,      /* J =  1 */
(PID.TID 0000.0001)                 2.459906945574446E+10,      /* J =  2 */
(PID.TID 0000.0001)                 3.378518544307869E+10,      /* J =  3 */
(PID.TID 0000.0001)                 4.192037169898667E+10,      /* J =  4 */
(PID.TID 0000.0001)                 4.925938996118163E+10,      /* J =  5 */
(PID.TID 0000.0001)                 5.594154126607553E+10,      /* J =  6 */
(PID.TID 0000.0001)                 6.203683527776127E+10,      /* J =  7 */
(PID.TID 0000.0001)                 6.757541173817516E+10,      /* J =  8 */
(PID.TID 0000.0001)                 7.256353271748119E+10,      /* J =  9 */
(PID.TID 0000.0001)                 7.699293007098555E+10,      /* J = 10 */
(PID.TID 0000.0001)                 8.084683449728902E+10,      /* J = 11 */
(PID.TID 0000.0001)                 8.410423102799828E+10,      /* J = 12 */
(PID.TID 0000.0001)                 8.674306976737517E+10,      /* J = 13 */
(PID.TID 0000.0001)                 8.874277443041928E+10,      /* J = 14 */
(PID.TID 0000.0001)                 9.008620045350865E+10,      /* J = 15 */
(PID.TID 0000.0001)                 9.076111290418457E+10,      /* J = 16 */
(PID.TID 0000.0001)                 9.076111290422060E+10,      /* J = 17 */
(PID.TID 0000.0001)                 9.008620045354469E+10,      /* J = 18 */
(PID.TID 0000.0001)                 8.874277443041928E+10,      /* J = 19 */
(PID.TID 0000.0001)                 8.674306976737517E+10,      /* J = 20 */
(PID.TID 0000.0001)                 8.410423102799828E+10,      /* J = 21 */
(PID.TID 0000.0001)                 8.084683449728902E+10,      /* J = 22 */
(PID.TID 0000.0001)                 7.699293007098555E+10,      /* J = 23 */
(PID.TID 0000.0001)                 7.256353271748119E+10,      /* J = 24 */
(PID.TID 0000.0001)                 6.757541173817516E+10,      /* J = 25 */
(PID.TID 0000.0001)                 6.203683527772523E+10,      /* J = 26 */
(PID.TID 0000.0001)                 5.594154126607553E+10,      /* J = 27 */
(PID.TID 0000.0001)                 4.925938996118163E+10,      /* J = 28 */
(PID.TID 0000.0001)                 4.192037169898667E+10,      /* J = 29 */
(PID.TID 0000.0001)                 3.378518544307869E+10,      /* J = 30 */
(PID.TID 0000.0001)                 2.459906945574446E+10,      /* J = 31 */
(PID.TID 0000.0001)                 1.401900702259215E+10       /* J = 32 */
(PID.TID 0000.0001)     ;
(PID.TID 0000.0001) rAw =  /* rAw(:,1,:,1) ( units: m^2 ) */
(PID.TID 0000.0001)                 1.216690346714270E+10,      /* I =  1 */
(PID.TID 0000.0001)                 1.974052138506315E+10,      /* I =  2 */
(PID.TID 0000.0001)                 2.943712825252015E+10,      /* I =  3 */
(PID.TID 0000.0001)      . . .
(PID.TID 0000.0001)                 8.781353403175085E+10,      /* I = 46 */
(PID.TID 0000.0001)                 8.948571540392021E+10,      /* I = 47 */
(PID.TID 0000.0001)                 9.049530583086168E+10,      /* I = 48 */
(PID.TID 0000.0001)                 9.083293515008307E+10,      /* I = 49 */
(PID.TID 0000.0001)                 9.049530583087070E+10,      /* I = 50 */
(PID.TID 0000.0001)                 8.948571540391121E+10,      /* I = 51 */
(PID.TID 0000.0001)      . . .
(PID.TID 0000.0001)                 3.801790263325260E+10,      /* I = 94 */
(PID.TID 0000.0001)                 2.943712825251114E+10,      /* I = 95 */
(PID.TID 0000.0001)                 1.974052138509018E+10,      /* I = 96 */
(PID.TID 0000.0001)                 1.216690346714270E+10,      /* I = 97 */
(PID.TID 0000.0001)                 1.974052138506315E+10,      /* I = 98 */
(PID.TID 0000.0001)                 2.943712825252015E+10,      /* I = 99 */
(PID.TID 0000.0001)      . . .
(PID.TID 0000.0001)                 8.781353403175085E+10,      /* I =142 */
(PID.TID 0000.0001)                 8.948571540392021E+10,      /* I =143 */
(PID.TID 0000.0001)                 9.049530583086168E+10,      /* I =144 */
(PID.TID 0000.0001)                 9.083293515008307E+10,      /* I =145 */
(PID.TID 0000.0001)                 9.049530583087070E+10,      /* I =146 */
(PID.TID 0000.0001)                 8.948571540391121E+10,      /* I =147 */
(PID.TID 0000.0001)      . . .
(PID.TID 0000.0001)                 3.801790263325260E+10,      /* I =190 */
(PID.TID 0000.0001)                 2.943712825251114E+10,      /* I =191 */
(PID.TID 0000.0001)                 1.974052138509018E+10       /* I =192 */
(PID.TID 0000.0001)     ;
(PID.TID 0000.0001) rAw =  /* rAw(1,:,1,:) ( units: m^2 ) */
(PID.TID 0000.0001)                 1.216690346714270E+10,      /* J =  1 */
(PID.TID 0000.0001)                 2.390126200743558E+10,      /* J =  2 */
(PID.TID 0000.0001)                 3.341968103208270E+10,      /* J =  3 */
(PID.TID 0000.0001)                 4.168532893152940E+10,      /* J =  4 */
(PID.TID 0000.0001)                 4.909074590409593E+10,      /* J =  5 */
(PID.TID 0000.0001)                 5.581203765722643E+10,      /* J =  6 */
(PID.TID 0000.0001)                 6.193257577506788E+10,      /* J =  7 */
(PID.TID 0000.0001)                 6.748840226738273E+10,      /* J =  8 */
(PID.TID 0000.0001)                 7.248875782324815E+10,      /* J =  9 */
(PID.TID 0000.0001)                 7.692702995909871E+10,      /* J = 10 */
(PID.TID 0000.0001)                 8.078743937057304E+10,      /* J = 11 */
(PID.TID 0000.0001)                 8.404959656062837E+10,      /* J = 12 */
(PID.TID 0000.0001)                 8.669186205742538E+10,      /* J = 13 */
(PID.TID 0000.0001)                 8.869393350723613E+10,      /* J = 14 */
(PID.TID 0000.0001)                 9.003884657168852E+10,      /* J = 15 */
(PID.TID 0000.0001)     2 @  9.071447638299399E+10,             /* J = 16: 17 */
(PID.TID 0000.0001)                 9.003884657168852E+10,      /* J = 18 */
(PID.TID 0000.0001)                 8.869393350723613E+10,      /* J = 19 */
(PID.TID 0000.0001)                 8.669186205742538E+10,      /* J = 20 */
(PID.TID 0000.0001)                 8.404959656062837E+10,      /* J = 21 */
(PID.TID 0000.0001)                 8.078743937057304E+10,      /* J = 22 */
(PID.TID 0000.0001)                 7.692702995909871E+10,      /* J = 23 */
(PID.TID 0000.0001)                 7.248875782324815E+10,      /* J = 24 */
(PID.TID 0000.0001)                 6.748840226738273E+10,      /* J = 25 */
(PID.TID 0000.0001)                 6.193257577506788E+10,      /* J = 26 */
(PID.TID 0000.0001)                 5.581203765722643E+10,      /* J = 27 */
(PID.TID 0000.0001)                 4.909074590409593E+10,      /* J = 28 */
(PID.TID 0000.0001)                 4.168532893152940E+10,      /* J = 29 */
(PID.TID 0000.0001)                 3.341968103208270E+10,      /* J = 30 */
(PID.TID 0000.0001)                 2.390126200743558E+10,      /* J = 31 */
(PID.TID 0000.0001)                 1.216690346714270E+10       /* J = 32 */
(PID.TID 0000.0001)     ;
(PID.TID 0000.0001) rAs =  /* rAs(:,1,:,1) ( units: m^2 ) */
(PID.TID 0000.0001)                 1.216690346714270E+10,      /* I =  1 */
(PID.TID 0000.0001)                 2.390126200743558E+10,      /* I =  2 */
(PID.TID 0000.0001)                 3.341968103208270E+10,      /* I =  3 */
(PID.TID 0000.0001)      . . .
(PID.TID 0000.0001)                 8.869393350723613E+10,      /* I = 46 */
(PID.TID 0000.0001)                 9.003884657168852E+10,      /* I = 47 */
(PID.TID 0000.0001)                 9.071447638299399E+10,      /* I = 48 */
(PID.TID 0000.0001)                 9.071447638299399E+10,      /* I = 49 */
(PID.TID 0000.0001)                 9.003884657168852E+10,      /* I = 50 */
(PID.TID 0000.0001)                 8.869393350723613E+10,      /* I = 51 */
(PID.TID 0000.0001)      . . .
(PID.TID 0000.0001)                 3.341968103208270E+10,      /* I = 94 */
(PID.TID 0000.0001)                 2.390126200743558E+10,      /* I = 95 */
(PID.TID 0000.0001)                 1.216690346714270E+10,      /* I = 96 */
(PID.TID 0000.0001)                 1.216690346714270E+10,      /* I = 97 */
(PID.TID 0000.0001)                 2.390126200743558E+10,      /* I = 98 */
(PID.TID 0000.0001)                 3.341968103208270E+10,      /* I = 99 */
(PID.TID 0000.0001)      . . .
(PID.TID 0000.0001)                 8.869393350723613E+10,      /* I =142 */
(PID.TID 0000.0001)                 9.003884657168852E+10,      /* I =143 */
(PID.TID 0000.0001)                 9.071447638299399E+10,      /* I =144 */
(PID.TID 0000.0001)                 9.071447638299399E+10,      /* I =145 */
(PID.TID 0000.0001)                 9.003884657168852E+10,      /* I =146 */
(PID.TID 0000.0001)                 8.869393350723613E+10,      /* I =147 */
(PID.TID 0000.0001)      . . .
(PID.TID 0000.0001)                 3.341968103208270E+10,      /* I =190 */
(PID.TID 0000.0001)                 2.390126200743558E+10,      /* I =191 */
(PID.TID 0000.0001)                 1.216690346714270E+10       /* I =192 */
(PID.TID 0000.0001)     ;
(PID.TID 0000.0001) rAs =  /* rAs(1,:,1,:) ( units: m^2 ) */
(PID.TID 0000.0001)                 1.216690346714270E+10,      /* J =  1 */
(PID.TID 0000.0001)                 1.974052138506315E+10,      /* J =  2 */
(PID.TID 0000.0001)                 2.943712825252015E+10,      /* J =  3 */
(PID.TID 0000.0001)                 3.801790263324359E+10,      /* J =  4 */
(PID.TID 0000.0001)                 4.571243814189866E+10,      /* J =  5 */
(PID.TID 0000.0001)                 5.269930713599979E+10,      /* J =  6 */
(PID.TID 0000.0001)                 5.907428494299063E+10,      /* J =  7 */
(PID.TID 0000.0001)                 6.488320895111514E+10,      /* J =  8 */
(PID.TID 0000.0001)                 7.014205907741882E+10,      /* J =  9 */
(PID.TID 0000.0001)                 7.484854821847499E+10,      /* J = 10 */
(PID.TID 0000.0001)                 7.898934631431560E+10,      /* J = 11 */
(PID.TID 0000.0001)                 8.254500894894537E+10,      /* J = 12 */
(PID.TID 0000.0001)                 8.549360686473492E+10,      /* J = 13 */
(PID.TID 0000.0001)                 8.781353403175085E+10,      /* J = 14 */
(PID.TID 0000.0001)                 8.948571540392021E+10,      /* J = 15 */
(PID.TID 0000.0001)                 9.049530583086168E+10,      /* J = 16 */
(PID.TID 0000.0001)                 9.083293515008307E+10,      /* J = 17 */
(PID.TID 0000.0001)                 9.049530583087070E+10,      /* J = 18 */
(PID.TID 0000.0001)                 8.948571540391121E+10,      /* J = 19 */
(PID.TID 0000.0001)                 8.781353403174185E+10,      /* J = 20 */
(PID.TID 0000.0001)                 8.549360686467184E+10,      /* J = 21 */
(PID.TID 0000.0001)                 8.254500894890933E+10,      /* J = 22 */
(PID.TID 0000.0001)                 7.898934631434262E+10,      /* J = 23 */
(PID.TID 0000.0001)                 7.484854821844795E+10,      /* J = 24 */
(PID.TID 0000.0001)                 7.014205907742783E+10,      /* J = 25 */
(PID.TID 0000.0001)                 6.488320895111514E+10,      /* J = 26 */
(PID.TID 0000.0001)                 5.907428494299063E+10,      /* J = 27 */
(PID.TID 0000.0001)                 5.269930713599078E+10,      /* J = 28 */
(PID.TID 0000.0001)                 4.571243814190767E+10,      /* J = 29 */
(PID.TID 0000.0001)                 3.801790263325260E+10,      /* J = 30 */
(PID.TID 0000.0001)                 2.943712825251114E+10,      /* J = 31 */
(PID.TID 0000.0001)                 1.974052138509018E+10       /* J = 32 */
(PID.TID 0000.0001)     ;
(PID.TID 0000.0001) globalArea = /* Integrated horizontal Area (m^2) */
(PID.TID 0000.0001)                 5.099043637817220E+14
(PID.TID 0000.0001)     ;
(PID.TID 0000.0001) hasWetCSCorners = /* Domain contains CS corners (True/False) */
(PID.TID 0000.0001)                   T
(PID.TID 0000.0001)     ;
(PID.TID 0000.0001) // =======================================================
(PID.TID 0000.0001) // End of Model config. summary
(PID.TID 0000.0001) // =======================================================
(PID.TID 0000.0001) 
(PID.TID 0000.0001) == Packages configuration : Check & print summary ==
(PID.TID 0000.0001) 
(PID.TID 0000.0001) GAD_CHECK: #define ALLOW_GENERIC_ADVDIFF
(PID.TID 0000.0001) // =======================================================
(PID.TID 0000.0001) // Check Model config. (CONFIG_CHECK):
(PID.TID 0000.0001) // CONFIG_CHECK : Normal End
(PID.TID 0000.0001) // =======================================================
(PID.TID 0000.0001) 
(PID.TID 0000.0001)  MDS_READ_META: opening file: pickup.0000069120.meta
(PID.TID 0000.0001)  nRecords =  43 ; filePrec =  64 ; fileIter =     69120
(PID.TID 0000.0001)     nDims =   2 , dims:
(PID.TID 0000.0001)    1: 192   1 192
(PID.TID 0000.0001)    2:  32   1  32
(PID.TID 0000.0001)     nFlds =  11 , nFl3D =   8 , fields:
(PID.TID 0000.0001)  >Uvel    < >GuNm1   < >Vvel    < >GvNm1   < >Theta   < >GtNm1   < >Salt    < >GsNm1   < >EtaN    < >dEtaHdt < >EtaH    <
(PID.TID 0000.0001) missingVal=  1.00000000000000E+00 ; nTimRec =   0 , timeList:
(PID.TID 0000.0001) READ_MFLDS_3D_RL: read field: "Uvel    ", #   1 in fldList, rec=   1
(PID.TID 0000.0001)  MDS_READ_FIELD: opening global file: pickup.0000069120
(PID.TID 0000.0001) READ_MFLDS_3D_RL: read field: "Vvel    ", #   3 in fldList, rec=   3
(PID.TID 0000.0001)  MDS_READ_FIELD: opening global file: pickup.0000069120
(PID.TID 0000.0001) READ_MFLDS_3D_RL: read field: "Theta   ", #   5 in fldList, rec=   5
(PID.TID 0000.0001)  MDS_READ_FIELD: opening global file: pickup.0000069120
(PID.TID 0000.0001) READ_MFLDS_3D_RL: read field: "Salt    ", #   7 in fldList, rec=   7
(PID.TID 0000.0001)  MDS_READ_FIELD: opening global file: pickup.0000069120
(PID.TID 0000.0001) READ_MFLDS_3D_RL: read field: "GuNm1   ", #   2 in fldList, rec=   2
(PID.TID 0000.0001)  MDS_READ_FIELD: opening global file: pickup.0000069120
(PID.TID 0000.0001) READ_MFLDS_3D_RL: read field: "GvNm1   ", #   4 in fldList, rec=   4
(PID.TID 0000.0001)  MDS_READ_FIELD: opening global file: pickup.0000069120
(PID.TID 0000.0001) READ_MFLDS_3D_RL: read field: "GtNm1   ", #   6 in fldList, rec=   6
(PID.TID 0000.0001)  MDS_READ_FIELD: opening global file: pickup.0000069120
(PID.TID 0000.0001) READ_MFLDS_3D_RL: read field: "GsNm1   ", #   8 in fldList, rec=   8
(PID.TID 0000.0001)  MDS_READ_FIELD: opening global file: pickup.0000069120
(PID.TID 0000.0001) READ_MFLDS_3D_RL: read field: "EtaN    ", #   9 in fldList, rec=  41
(PID.TID 0000.0001)  MDS_READ_FIELD: opening global file: pickup.0000069120
(PID.TID 0000.0001) READ_MFLDS_3D_RL: read field: "dEtaHdt ", #  10 in fldList, rec=  42
(PID.TID 0000.0001)  MDS_READ_FIELD: opening global file: pickup.0000069120
(PID.TID 0000.0001) READ_MFLDS_3D_RL: read field: "EtaH    ", #  11 in fldList, rec=  43
(PID.TID 0000.0001)  MDS_READ_FIELD: opening global file: pickup.0000069120
(PID.TID 0000.0001) READ_MFLDS_CHECK: - normal end ; reset MFLDS file-name: pickup.0000069120
(PID.TID 0000.0001)  MDS_READ_FIELD: opening global file: pickup_land.0000069120
(PID.TID 0000.0001)  MDS_READ_FIELD: opening global file: pickup_land.0000069120
(PID.TID 0000.0001)  MDS_READ_FIELD: opening global file: pickup_land.0000069120
(PID.TID 0000.0001)  MDS_READ_FIELD: opening global file: pickup_land.0000069120
(PID.TID 0000.0001)  MDS_READ_FIELD: opening global file: pickup_land.0000069120
(PID.TID 0000.0001) // =======================================================
(PID.TID 0000.0001) // Model current state
(PID.TID 0000.0001) // =======================================================
(PID.TID 0000.0001) 
(PID.TID 0000.0001) // =======================================================
(PID.TID 0000.0001) // Begin MONITOR dynamic field statistics
(PID.TID 0000.0001) // =======================================================
(PID.TID 0000.0001) %MON time_tsnumber                =                 69120
(PID.TID 0000.0001) %MON time_secondsf                =   3.1104000000000E+07
(PID.TID 0000.0001) %MON dynstat_eta_max              =   3.1421016034748E+03
(PID.TID 0000.0001) %MON dynstat_eta_min              =  -5.3940559891754E+03
(PID.TID 0000.0001) %MON dynstat_eta_mean             =   1.0282084979850E-13
(PID.TID 0000.0001) %MON dynstat_eta_sd               =   1.1080893763085E+03
(PID.TID 0000.0001) %MON dynstat_eta_del2             =   4.3994979636862E+00
(PID.TID 0000.0001) %MON dynstat_uvel_max             =   7.8931217192886E+01
(PID.TID 0000.0001) %MON dynstat_uvel_min             =  -6.9566896607127E+01
(PID.TID 0000.0001) %MON dynstat_uvel_mean            =   1.2441121706753E+00
(PID.TID 0000.0001) %MON dynstat_uvel_sd              =   1.3015310096925E+01
(PID.TID 0000.0001) %MON dynstat_uvel_del2            =   4.1545586934359E-02
(PID.TID 0000.0001) %MON dynstat_vvel_max             =   1.0446043606493E+02
(PID.TID 0000.0001) %MON dynstat_vvel_min             =  -8.4789731626114E+01
(PID.TID 0000.0001) %MON dynstat_vvel_mean            =   1.3710899810119E+00
(PID.TID 0000.0001) %MON dynstat_vvel_sd              =   1.2734370981448E+01
(PID.TID 0000.0001) %MON dynstat_vvel_del2            =   4.2777716877135E-02
(PID.TID 0000.0001) %MON dynstat_wvel_max             =   2.2314330431666E+00
(PID.TID 0000.0001) %MON dynstat_wvel_min             =  -2.6015818483022E+00
(PID.TID 0000.0001) %MON dynstat_wvel_mean            =   1.9172783373760E-05
(PID.TID 0000.0001) %MON dynstat_wvel_sd              =   1.7361747648232E-01
(PID.TID 0000.0001) %MON dynstat_wvel_del2            =   1.8638622457064E-03
(PID.TID 0000.0001) %MON dynstat_theta_max            =   4.9023525933960E+02
(PID.TID 0000.0001) %MON dynstat_theta_min            =   2.2248413246000E+02
(PID.TID 0000.0001) %MON dynstat_theta_mean           =   3.3062567442763E+02
(PID.TID 0000.0001) %MON dynstat_theta_sd             =   4.7459118254045E+01
(PID.TID 0000.0001) %MON dynstat_theta_del2           =   1.9417538513933E-02
(PID.TID 0000.0001) %MON dynstat_salt_max             =   2.0573602655587E+01
(PID.TID 0000.0001) %MON dynstat_salt_min             =  -1.0667186502301E+00
(PID.TID 0000.0001) %MON dynstat_salt_mean            =   2.2132891509349E+00
(PID.TID 0000.0001) %MON dynstat_salt_sd              =   3.1735606055732E+00
(PID.TID 0000.0001) %MON dynstat_salt_del2            =   5.6219851912063E-03
(PID.TID 0000.0001) %MON advcfl_uvel_max              =   2.1364570327992E-01
(PID.TID 0000.0001) %MON advcfl_vvel_max              =   2.2222836096761E-01
(PID.TID 0000.0001) %MON advcfl_wvel_max              =   5.4020740768045E-02
(PID.TID 0000.0001) %MON advcfl_W_hf_max              =   9.4178130990971E-02
(PID.TID 0000.0001) %MON am_eta_mean                  =   2.4497379467799E+10
(PID.TID 0000.0001) %MON am_uZo_mean                  =   2.8146908527050E+11
(PID.TID 0000.0001) %MON am_tot_mean                  =   3.0596646473830E+11
(PID.TID 0000.0001) %MON pe_b_mean                    =   4.2219536410519E+00
(PID.TID 0000.0001) %MON ke_max                       =   5.7193611832839E+03
(PID.TID 0000.0001) %MON ke_mean                      =   1.6647061065991E+02
(PID.TID 0000.0001) %MON ke_vol                       =   4.9464174767476E+19
(PID.TID 0000.0001) %MON vort_r_min                   =  -3.5657643243122E-04
(PID.TID 0000.0001) %MON vort_r_max                   =   4.6782830826820E-04
(PID.TID 0000.0001) %MON vort_a_mean                  =   6.4092774000349E-08
(PID.TID 0000.0001) %MON vort_a_sd                    =   9.1538150528402E-05
(PID.TID 0000.0001) %MON vort_p_mean                  =   6.5783547893087E-08
(PID.TID 0000.0001) %MON vort_p_sd                    =   9.8730120491805E-05
(PID.TID 0000.0001) %MON surfExpan_theta_mean         =  -1.7064759856005E-03
(PID.TID 0000.0001) %MON surfExpan_salt_mean          =  -5.5996048356970E-04
(PID.TID 0000.0001) %MON surfExpan_Heat_mean          =  -4.0757906519176E-02
(PID.TID 0000.0001) %MON En_Budget_T2PE_mean          =   1.9273945504761E+00
(PID.TID 0000.0001) // =======================================================
(PID.TID 0000.0001) // End MONITOR dynamic field statistics
(PID.TID 0000.0001) // =======================================================
(PID.TID 0000.0001) // =======================================================
(PID.TID 0000.0001) // Begin MONITOR Land statistics
(PID.TID 0000.0001) // =======================================================
(PID.TID 0000.0001) %MON land_time_sec                =   3.1104000000000E+07
(PID.TID 0000.0001) %MON land_SnwH_ave_G              =   1.0188360044614E-01
(PID.TID 0000.0001) %MON land_SnwH_ave_S              =   1.7910119702481E-01
(PID.TID 0000.0001) %MON land_SnwH_ave_T              =   0.0000000000000E+00
(PID.TID 0000.0001) %MON land_SnwH_ave_N              =   1.4532993185063E-01
(PID.TID 0000.0001) %MON land_SnwH_max_S              =   2.1784077828983E+00
(PID.TID 0000.0001) %MON land_SnwH_max_T              =   0.0000000000000E+00
(PID.TID 0000.0001) %MON land_SnwH_max_N              =   1.3387777688889E+00
(PID.TID 0000.0001) %MON land_Tsrf_ave_G              =   6.0854913678341E-01
(PID.TID 0000.0001) %MON land_Tsrf_ave_S              =   2.6576383915828E+00
(PID.TID 0000.0001) %MON land_Tsrf_ave_T              =   2.2930896577375E+01
(PID.TID 0000.0001) %MON land_Tsrf_ave_N              =  -1.4947641600344E+01
(PID.TID 0000.0001) %MON land_Tsrf_min_S              =  -2.3978290501444E+01
(PID.TID 0000.0001) %MON land_Tsrf_min_T              =   3.2642856970225E+00
(PID.TID 0000.0001) %MON land_Tsrf_min_N              =  -5.5903974158138E+01
(PID.TID 0000.0001) %MON land_Tsrf_max_S              =   3.6752829948962E+01
(PID.TID 0000.0001) %MON land_Tsrf_max_T              =   3.9659871428699E+01
(PID.TID 0000.0001) %MON land_Tsrf_max_N              =   2.2687312630859E+01
(PID.TID 0000.0001) %MON land_Tgr1_ave_G              =   1.1514595253065E+00
(PID.TID 0000.0001) %MON land_Tgr1_ave_S              =   1.1185770742346E+00
(PID.TID 0000.0001) %MON land_Tgr1_ave_T              =   2.2930896577375E+01
(PID.TID 0000.0001) %MON land_Tgr1_ave_N              =  -1.3379555741519E+01
(PID.TID 0000.0001) %MON land_Tgr1_min_S              =  -2.5644477434690E+01
(PID.TID 0000.0001) %MON land_Tgr1_min_T              =   3.2642856970225E+00
(PID.TID 0000.0001) %MON land_Tgr1_min_N              =  -4.8273516935643E+01
(PID.TID 0000.0001) %MON land_Tgr1_max_S              =   3.6752829948962E+01
(PID.TID 0000.0001) %MON land_Tgr1_max_T              =   3.9659871428699E+01
(PID.TID 0000.0001) %MON land_Tgr1_max_N              =   2.2687312630859E+01
(PID.TID 0000.0001) %MON land_Tgr2_ave_G              =   6.1851278809291E+00
(PID.TID 0000.0001) %MON land_Tgr2_ave_S              =  -1.4428804697135E+01
(PID.TID 0000.0001) %MON land_Tgr2_ave_T              =   2.3334535179405E+01
(PID.TID 0000.0001) %MON land_Tgr2_ave_N              =   1.2963817647136E+00
(PID.TID 0000.0001) %MON land_Tgr2_min_S              =  -5.4419854509272E+01
(PID.TID 0000.0001) %MON land_Tgr2_min_T              =  -1.0840929048025E-03
(PID.TID 0000.0001) %MON land_Tgr2_min_N              =  -3.5971901672499E+01
(PID.TID 0000.0001) %MON land_Tgr2_max_S              =   2.6659391873711E+01
(PID.TID 0000.0001) %MON land_Tgr2_max_T              =   3.1461786815684E+01
(PID.TID 0000.0001) %MON land_Tgr2_max_N              =   2.8323936694900E+01
(PID.TID 0000.0001) %MON land_TotEnerg_G              =  -5.4961321136201E+21
(PID.TID 0000.0001) %MON land_TotEnerg_S              =  -4.0530625569333E+21
(PID.TID 0000.0001) %MON land_TotEnerg_T              =   7.5075695871579E+21
(PID.TID 0000.0001) %MON land_TotEnerg_N              =  -8.9506391438447E+21
(PID.TID 0000.0001) %MON land_grdW_ave_G              =   5.3572099182868E-01
(PID.TID 0000.0001) %MON land_grdW_ave_S              =   3.8804705038469E-01
(PID.TID 0000.0001) %MON land_grdW_ave_T              =   4.9145845964670E-01
(PID.TID 0000.0001) %MON land_grdW_ave_N              =   6.1227829535175E-01
(PID.TID 0000.0001) %MON land_grdW_min_S              =   2.0739644366308E-03
(PID.TID 0000.0001) %MON land_grdW_min_T              =   1.2802869144742E-02
(PID.TID 0000.0001) %MON land_grdW_min_N              =   1.9577654182966E-02
(PID.TID 0000.0001) // =======================================================
(PID.TID 0000.0001) // End MONITOR Land statistics
(PID.TID 0000.0001) // =======================================================
(PID.TID 0000.0001)  MDS_READ_FIELD: opening global file: albedo.FM.bin
(PID.TID 0000.0001)  MDS_READ_FIELD: opening global file: vegetFrc.FM.bin
(PID.TID 0000.0001)  MDS_READ_FIELD: opening global file: seaSurfT.FM.bin
(PID.TID 0000.0001)  MDS_READ_FIELD: opening global file: seaSurfT.FM.bin
(PID.TID 0000.0001)  MDS_READ_FIELD: opening global file: lndSurfT.2f2.bin
(PID.TID 0000.0001)  MDS_READ_FIELD: opening global file: lndSurfT.2f2.bin
(PID.TID 0000.0001)  MDS_READ_FIELD: opening global file: seaIce.2f2.bin
(PID.TID 0000.0001)  MDS_READ_FIELD: opening global file: seaIce.2f2.bin
(PID.TID 0000.0001)  MDS_READ_FIELD: opening global file: snowDepth.FM.bin
(PID.TID 0000.0001)  MDS_READ_FIELD: opening global file: snowDepth.FM.bin
(PID.TID 0000.0001)  MDS_READ_FIELD: opening global file: soilMoist.FM.bin
(PID.TID 0000.0001)  MDS_READ_FIELD: opening global file: soilMoist.FM.bin
(PID.TID 0000.0001)  MDS_READ_FIELD: opening global file: soilMoist.FM.bin
(PID.TID 0000.0001)  MDS_READ_FIELD: opening global file: soilMoist.FM.bin
(PID.TID 0000.0001) SOLVE_FOR_PRESSURE: putPmEinXvector =    F
 cg2d: Sum(rhs),rhsMax =  -6.98491930961609E-09  2.23779325513551E+04
(PID.TID 0000.0001)      cg2d_init_res =   7.13573938260257E+03
(PID.TID 0000.0001)      cg2d_iters(min,last) =      -1      17
(PID.TID 0000.0001)      cg2d_last_res =   1.13978809061307E-11
(PID.TID 0000.0001) // =======================================================
(PID.TID 0000.0001) // Begin MONITOR dynamic field statistics
(PID.TID 0000.0001) // =======================================================
(PID.TID 0000.0001) %MON time_tsnumber                =                 69121
(PID.TID 0000.0001) %MON time_secondsf                =   3.1104450000000E+07
(PID.TID 0000.0001) %MON dynstat_eta_max              =   3.1275417801946E+03
(PID.TID 0000.0001) %MON dynstat_eta_min              =  -5.3665076732062E+03
(PID.TID 0000.0001) %MON dynstat_eta_mean             =   1.5423127469775E-13
(PID.TID 0000.0001) %MON dynstat_eta_sd               =   1.1052087189029E+03
(PID.TID 0000.0001) %MON dynstat_eta_del2             =   4.2357855645681E+00
(PID.TID 0000.0001) %MON dynstat_uvel_max             =   7.9189139188154E+01
(PID.TID 0000.0001) %MON dynstat_uvel_min             =  -6.9749872259914E+01
(PID.TID 0000.0001) %MON dynstat_uvel_mean            =   1.2448763014454E+00
(PID.TID 0000.0001) %MON dynstat_uvel_sd              =   1.3013418377112E+01
(PID.TID 0000.0001) %MON dynstat_uvel_del2            =   4.1577459710830E-02
(PID.TID 0000.0001) %MON dynstat_vvel_max             =   1.0451027061387E+02
(PID.TID 0000.0001) %MON dynstat_vvel_min             =  -8.5091594295882E+01
(PID.TID 0000.0001) %MON dynstat_vvel_mean            =   1.3713414522153E+00
(PID.TID 0000.0001) %MON dynstat_vvel_sd              =   1.2739785227312E+01
(PID.TID 0000.0001) %MON dynstat_vvel_del2            =   4.2823395626019E-02
(PID.TID 0000.0001) %MON dynstat_wvel_max             =   2.2879188698637E+00
(PID.TID 0000.0001) %MON dynstat_wvel_min             =  -2.5748363526184E+00
(PID.TID 0000.0001) %MON dynstat_wvel_mean            =   8.5297418744941E-05
(PID.TID 0000.0001) %MON dynstat_wvel_sd              =   1.7367904669519E-01
(PID.TID 0000.0001) %MON dynstat_wvel_del2            =   1.8723531437385E-03
(PID.TID 0000.0001) %MON dynstat_theta_max            =   4.9029027410076E+02
(PID.TID 0000.0001) %MON dynstat_theta_min            =   2.2239734160003E+02
(PID.TID 0000.0001) %MON dynstat_theta_mean           =   3.3062636509768E+02
(PID.TID 0000.0001) %MON dynstat_theta_sd             =   4.7458172884704E+01
(PID.TID 0000.0001) %MON dynstat_theta_del2           =   1.9423552188377E-02
(PID.TID 0000.0001) %MON dynstat_salt_max             =   2.0587422485848E+01
(PID.TID 0000.0001) %MON dynstat_salt_min             =  -1.0684545721598E+00
(PID.TID 0000.0001) %MON dynstat_salt_mean            =   2.2130461810809E+00
(PID.TID 0000.0001) %MON dynstat_salt_sd              =   3.1735792343272E+00
(PID.TID 0000.0001) %MON dynstat_salt_del2            =   5.6239279217699E-03
(PID.TID 0000.0001) %MON advcfl_uvel_max              =   2.1153649470614E-01
(PID.TID 0000.0001) %MON advcfl_vvel_max              =   2.2227114091237E-01
(PID.TID 0000.0001) %MON advcfl_wvel_max              =   5.3960976859092E-02
(PID.TID 0000.0001) %MON advcfl_W_hf_max              =   9.4049792295150E-02
(PID.TID 0000.0001) %MON am_eta_mean                  =   2.4501563557475E+10
(PID.TID 0000.0001) %MON am_uZo_mean                  =   2.8149799072714E+11
(PID.TID 0000.0001) %MON am_tot_mean                  =   3.0599955428462E+11
(PID.TID 0000.0001) %MON pe_b_mean                    =   4.1999421294752E+00
(PID.TID 0000.0001) %MON ke_max                       =   5.7202531019991E+03
(PID.TID 0000.0001) %MON ke_mean                      =   1.6651589866919E+02
(PID.TID 0000.0001) %MON ke_vol                       =   4.9464174767476E+19
(PID.TID 0000.0001) %MON vort_r_min                   =  -3.5081654919082E-04
(PID.TID 0000.0001) %MON vort_r_max                   =   4.7629273441690E-04
(PID.TID 0000.0001) %MON vort_a_mean                  =   6.4092774000384E-08
(PID.TID 0000.0001) %MON vort_a_sd                    =   9.1540867670146E-05
(PID.TID 0000.0001) %MON vort_p_mean                  =   6.5783547988438E-08
(PID.TID 0000.0001) %MON vort_p_sd                    =   9.8733069768881E-05
(PID.TID 0000.0001) %MON surfExpan_theta_mean         =  -3.3994406686182E-03
(PID.TID 0000.0001) %MON surfExpan_salt_mean          =   7.1358444479863E-04
(PID.TID 0000.0001) %MON surfExpan_Heat_mean          =   7.9449696500725E-01
(PID.TID 0000.0001) %MON En_Budget_T2PE_mean          =   9.1441160662578E-01
(PID.TID 0000.0001) // =======================================================
(PID.TID 0000.0001) // End MONITOR dynamic field statistics
(PID.TID 0000.0001) // =======================================================
(PID.TID 0000.0001) // =======================================================
(PID.TID 0000.0001) // Begin MONITOR Land statistics
(PID.TID 0000.0001) // =======================================================
(PID.TID 0000.0001) %MON land_time_sec                =   3.1104450000000E+07
(PID.TID 0000.0001) %MON land_SnwH_ave_G              =   1.0188821200360E-01
(PID.TID 0000.0001) %MON land_SnwH_ave_S              =   1.7909940702151E-01
(PID.TID 0000.0001) %MON land_SnwH_ave_T              =   0.0000000000000E+00
(PID.TID 0000.0001) %MON land_SnwH_ave_N              =   1.4533966002074E-01
(PID.TID 0000.0001) %MON land_SnwH_max_S              =   2.1783971700205E+00
(PID.TID 0000.0001) %MON land_SnwH_max_T              =   0.0000000000000E+00
(PID.TID 0000.0001) %MON land_SnwH_max_N              =   1.3389614480280E+00
(PID.TID 0000.0001) %MON LAND : Area= 1.459564814E+14 ; Lat sep= -24.00  24.00
(PID.TID 0000.0001) %MON LAND : LatA= 2.339303737E+13 4.906963102E+13 7.349381305E+13
(PID.TID 0000.0001) %MON land_Tsrf_ave_G              =   7.3171904643913E-01
(PID.TID 0000.0001) %MON land_Tsrf_ave_S              =   3.0475341221709E+00
(PID.TID 0000.0001) %MON land_Tsrf_ave_T              =   2.2934633765112E+01
(PID.TID 0000.0001) %MON land_Tsrf_ave_N              =  -1.4829628689425E+01
(PID.TID 0000.0001) %MON land_Tsrf_min_S              =  -2.3121483961080E+01
(PID.TID 0000.0001) %MON land_Tsrf_min_T              =   3.2537137854569E+00
(PID.TID 0000.0001) %MON land_Tsrf_min_N              =  -5.6026946328017E+01
(PID.TID 0000.0001) %MON land_Tsrf_max_S              =   3.6783175604715E+01
(PID.TID 0000.0001) %MON land_Tsrf_max_T              =   3.9633163313259E+01
(PID.TID 0000.0001) %MON land_Tsrf_max_N              =   2.2712214084644E+01
(PID.TID 0000.0001) %MON land_Tgr1_ave_G              =   1.1595162544341E+00
(PID.TID 0000.0001) %MON land_Tgr1_ave_S              =   1.1317454126270E+00
(PID.TID 0000.0001) %MON land_Tgr1_ave_T              =   2.2934633765112E+01
(PID.TID 0000.0001) %MON land_Tgr1_ave_N              =  -1.3370242005416E+01
(PID.TID 0000.0001) %MON land_Tgr1_min_S              =  -2.5640407042226E+01
(PID.TID 0000.0001) %MON land_Tgr1_min_T              =   3.2537137854569E+00
(PID.TID 0000.0001) %MON land_Tgr1_min_N              =  -4.8282122779687E+01
(PID.TID 0000.0001) %MON land_Tgr1_max_S              =   3.6783175604715E+01
(PID.TID 0000.0001) %MON land_Tgr1_max_T              =   3.9633163313259E+01
(PID.TID 0000.0001) %MON land_Tgr1_max_N              =   2.2712214084644E+01
(PID.TID 0000.0001) %MON land_Tgr2_ave_G              =   6.1850729134959E+00
(PID.TID 0000.0001) %MON land_Tgr2_ave_S              =  -1.4428560262776E+01
(PID.TID 0000.0001) %MON land_Tgr2_ave_T              =   2.3334526860860E+01
(PID.TID 0000.0001) %MON land_Tgr2_ave_N              =   1.2962003517926E+00
(PID.TID 0000.0001) %MON land_Tgr2_min_S              =  -5.4419302708985E+01
(PID.TID 0000.0001) %MON land_Tgr2_min_T              =  -9.9991844690167E-04
(PID.TID 0000.0001) %MON land_Tgr2_min_N              =  -3.5971935233213E+01
(PID.TID 0000.0001) %MON land_Tgr2_max_S              =   2.6659385594165E+01
(PID.TID 0000.0001) %MON land_Tgr2_max_T              =   3.1461609500739E+01
(PID.TID 0000.0001) %MON land_Tgr2_max_N              =   2.8323711685843E+01
(PID.TID 0000.0001) %MON land_TotEnerg_G              =  -5.4960844302729E+21
(PID.TID 0000.0001) %MON land_TotEnerg_S              =  -4.0529866118397E+21
(PID.TID 0000.0001) %MON land_TotEnerg_T              =   7.5075768074570E+21
(PID.TID 0000.0001) %MON land_TotEnerg_N              =  -8.9506746258902E+21
(PID.TID 0000.0001) %MON land_grdW_ave_G              =   5.3572026347622E-01
(PID.TID 0000.0001) %MON land_grdW_ave_S              =   3.8804563932717E-01
(PID.TID 0000.0001) %MON land_grdW_ave_T              =   4.9145691173255E-01
(PID.TID 0000.0001) %MON land_grdW_ave_N              =   6.1227833150085E-01
(PID.TID 0000.0001) %MON land_grdW_min_S              =   2.0739644366308E-03
(PID.TID 0000.0001) %MON land_grdW_min_T              =   1.2808175988278E-02
(PID.TID 0000.0001) %MON land_grdW_min_N              =   1.9577654182966E-02
(PID.TID 0000.0001) // =======================================================
(PID.TID 0000.0001) // End MONITOR Land statistics
(PID.TID 0000.0001) // =======================================================
 cg2d: Sum(rhs),rhsMax =  -4.19095158576965E-09  2.21964720761967E+04
(PID.TID 0000.0001)      cg2d_init_res =   6.69590805940032E+03
(PID.TID 0000.0001)      cg2d_iters(min,last) =      -1      17
(PID.TID 0000.0001)      cg2d_last_res =   1.26108848464376E-11
(PID.TID 0000.0001) // =======================================================
(PID.TID 0000.0001) // Begin MONITOR dynamic field statistics
(PID.TID 0000.0001) // =======================================================
(PID.TID 0000.0001) %MON time_tsnumber                =                 69122
(PID.TID 0000.0001) %MON time_secondsf                =   3.1104900000000E+07
(PID.TID 0000.0001) %MON dynstat_eta_max              =   3.1001699674856E+03
(PID.TID 0000.0001) %MON dynstat_eta_min              =  -5.3224703924901E+03
(PID.TID 0000.0001) %MON dynstat_eta_mean             =   2.4419951827144E-13
(PID.TID 0000.0001) %MON dynstat_eta_sd               =   1.1003556074927E+03
(PID.TID 0000.0001) %MON dynstat_eta_del2             =   4.0857445280767E+00
(PID.TID 0000.0001) %MON dynstat_uvel_max             =   7.9442834560376E+01
(PID.TID 0000.0001) %MON dynstat_uvel_min             =  -6.9850248485585E+01
(PID.TID 0000.0001) %MON dynstat_uvel_mean            =   1.2456388540443E+00
(PID.TID 0000.0001) %MON dynstat_uvel_sd              =   1.3010519214826E+01
(PID.TID 0000.0001) %MON dynstat_uvel_del2            =   4.1580661848630E-02
(PID.TID 0000.0001) %MON dynstat_vvel_max             =   1.0455822942398E+02
(PID.TID 0000.0001) %MON dynstat_vvel_min             =  -8.5360328461754E+01
(PID.TID 0000.0001) %MON dynstat_vvel_mean            =   1.3720668790985E+00
(PID.TID 0000.0001) %MON dynstat_vvel_sd              =   1.2744069543192E+01
(PID.TID 0000.0001) %MON dynstat_vvel_del2            =   4.2836370978125E-02
(PID.TID 0000.0001) %MON dynstat_wvel_max             =   2.3343944049553E+00
(PID.TID 0000.0001) %MON dynstat_wvel_min             =  -2.6459064626684E+00
(PID.TID 0000.0001) %MON dynstat_wvel_mean            =   1.3148158197540E-04
(PID.TID 0000.0001) %MON dynstat_wvel_sd              =   1.7373970565103E-01
(PID.TID 0000.0001) %MON dynstat_wvel_del2            =   1.8762325508733E-03
(PID.TID 0000.0001) %MON dynstat_theta_max            =   4.9036765222262E+02
(PID.TID 0000.0001) %MON dynstat_theta_min            =   2.2231170752061E+02
(PID.TID 0000.0001) %MON dynstat_theta_mean           =   3.3062700893022E+02
(PID.TID 0000.0001) %MON dynstat_theta_sd             =   4.7457279591774E+01
(PID.TID 0000.0001) %MON dynstat_theta_del2           =   1.9432783053448E-02
(PID.TID 0000.0001) %MON dynstat_salt_max             =   2.0600723463006E+01
(PID.TID 0000.0001) %MON dynstat_salt_min             =  -1.0696736637153E+00
(PID.TID 0000.0001) %MON dynstat_salt_mean            =   2.2128295314164E+00
(PID.TID 0000.0001) %MON dynstat_salt_sd              =   3.1736272038659E+00
(PID.TID 0000.0001) %MON dynstat_salt_del2            =   5.6262961563930E-03
(PID.TID 0000.0001) %MON advcfl_uvel_max              =   2.0909906874259E-01
(PID.TID 0000.0001) %MON advcfl_vvel_max              =   2.2198658374275E-01
(PID.TID 0000.0001) %MON advcfl_wvel_max              =   5.2021917726005E-02
(PID.TID 0000.0001) %MON advcfl_W_hf_max              =   9.0672905059472E-02
(PID.TID 0000.0001) %MON am_eta_mean                  =   2.4500982723732E+10
(PID.TID 0000.0001) %MON am_uZo_mean                  =   2.8153240593985E+11
(PID.TID 0000.0001) %MON am_tot_mean                  =   3.0603338866358E+11
(PID.TID 0000.0001) %MON pe_b_mean                    =   4.1623047604683E+00
(PID.TID 0000.0001) %MON ke_max                       =   5.7205849460304E+03
(PID.TID 0000.0001) %MON ke_mean                      =   1.6653452542074E+02
(PID.TID 0000.0001) %MON ke_vol                       =   4.9464174767476E+19
(PID.TID 0000.0001) %MON vort_r_min                   =  -3.4349910910495E-04
(PID.TID 0000.0001) %MON vort_r_max                   =   4.8020894429537E-04
(PID.TID 0000.0001) %MON vort_a_mean                  =   6.4092774000309E-08
(PID.TID 0000.0001) %MON vort_a_sd                    =   9.1540380201137E-05
(PID.TID 0000.0001) %MON vort_p_mean                  =   6.5783548279444E-08
(PID.TID 0000.0001) %MON vort_p_sd                    =   9.8732563258175E-05
(PID.TID 0000.0001) %MON surfExpan_theta_mean         =  -5.6161025371452E-03
(PID.TID 0000.0001) %MON surfExpan_salt_mean          =   1.4763184546358E-03
(PID.TID 0000.0001) %MON surfExpan_Heat_mean          =   1.2322637768730E+00
(PID.TID 0000.0001) %MON En_Budget_T2PE_mean          =   1.7422077958847E-01
(PID.TID 0000.0001) // =======================================================
(PID.TID 0000.0001) // End MONITOR dynamic field statistics
(PID.TID 0000.0001) // =======================================================
(PID.TID 0000.0001) // =======================================================
(PID.TID 0000.0001) // Begin MONITOR Land statistics
(PID.TID 0000.0001) // =======================================================
(PID.TID 0000.0001) %MON land_time_sec                =   3.1104900000000E+07
(PID.TID 0000.0001) %MON land_SnwH_ave_G              =   1.0189273852195E-01
(PID.TID 0000.0001) %MON land_SnwH_ave_S              =   1.7909764870983E-01
(PID.TID 0000.0001) %MON land_SnwH_ave_T              =   0.0000000000000E+00
(PID.TID 0000.0001) %MON land_SnwH_ave_N              =   1.4534920921832E-01
(PID.TID 0000.0001) %MON land_SnwH_max_S              =   2.1783866260956E+00
(PID.TID 0000.0001) %MON land_SnwH_max_T              =   0.0000000000000E+00
(PID.TID 0000.0001) %MON land_SnwH_max_N              =   1.3391355627980E+00
(PID.TID 0000.0001) %MON land_Tsrf_ave_G              =   7.3281534545874E-01
(PID.TID 0000.0001) %MON land_Tsrf_ave_S              =   3.0335903915999E+00
(PID.TID 0000.0001) %MON land_Tsrf_ave_T              =   2.2936894233875E+01
(PID.TID 0000.0001) %MON land_Tsrf_ave_N              =  -1.4824522439332E+01
(PID.TID 0000.0001) %MON land_Tsrf_min_S              =  -2.3188067639786E+01
(PID.TID 0000.0001) %MON land_Tsrf_min_T              =   3.2405270558864E+00
(PID.TID 0000.0001) %MON land_Tsrf_min_N              =  -5.6101106507398E+01
(PID.TID 0000.0001) %MON land_Tsrf_max_S              =   3.6810389185006E+01
(PID.TID 0000.0001) %MON land_Tsrf_max_T              =   3.9606804842598E+01
(PID.TID 0000.0001) %MON land_Tsrf_max_N              =   2.2734962405845E+01
(PID.TID 0000.0001) %MON land_Tgr1_ave_G              =   1.1665781435152E+00
(PID.TID 0000.0001) %MON land_Tgr1_ave_S              =   1.1432474660330E+00
(PID.TID 0000.0001) %MON land_Tgr1_ave_T              =   2.2936894233875E+01
(PID.TID 0000.0001) %MON land_Tgr1_ave_N              =  -1.3361387652617E+01
(PID.TID 0000.0001) %MON land_Tgr1_min_S              =  -2.5636885618284E+01
(PID.TID 0000.0001) %MON land_Tgr1_min_T              =   3.2405270558864E+00
(PID.TID 0000.0001) %MON land_Tgr1_min_N              =  -4.8290903357345E+01
(PID.TID 0000.0001) %MON land_Tgr1_max_S              =   3.6810389185006E+01
(PID.TID 0000.0001) %MON land_Tgr1_max_T              =   3.9606804842598E+01
(PID.TID 0000.0001) %MON land_Tgr1_max_N              =   2.2734962405845E+01
(PID.TID 0000.0001) %MON land_Tgr2_ave_G              =   6.1850179923632E+00
(PID.TID 0000.0001) %MON land_Tgr2_ave_S              =  -1.4428315742742E+01
(PID.TID 0000.0001) %MON land_Tgr2_ave_T              =   2.3334518576784E+01
(PID.TID 0000.0001) %MON land_Tgr2_ave_N              =   1.2960189805387E+00
(PID.TID 0000.0001) %MON land_Tgr2_min_S              =  -5.4418749765621E+01
(PID.TID 0000.0001) %MON land_Tgr2_min_T              =  -9.1569250014514E-04
(PID.TID 0000.0001) %MON land_Tgr2_min_N              =  -3.5971967291770E+01
(PID.TID 0000.0001) %MON land_Tgr2_max_S              =   2.6659379599816E+01
(PID.TID 0000.0001) %MON land_Tgr2_max_T              =   3.1461432588663E+01
(PID.TID 0000.0001) %MON land_Tgr2_max_N              =   2.8323487190950E+01
(PID.TID 0000.0001) %MON land_TotEnerg_G              =  -5.4960540188109E+21
(PID.TID 0000.0001) %MON land_TotEnerg_S              =  -4.0529155885084E+21
(PID.TID 0000.0001) %MON land_TotEnerg_T              =   7.5075740869870E+21
(PID.TID 0000.0001) %MON land_TotEnerg_N              =  -8.9507125172894E+21
(PID.TID 0000.0001) %MON land_grdW_ave_G              =   5.3571957399303E-01
(PID.TID 0000.0001) %MON land_grdW_ave_S              =   3.8804423912942E-01
(PID.TID 0000.0001) %MON land_grdW_ave_T              =   4.9145539390260E-01
(PID.TID 0000.0001) %MON land_grdW_ave_N              =   6.1227842130016E-01
(PID.TID 0000.0001) %MON land_grdW_min_S              =   2.0739644366308E-03
(PID.TID 0000.0001) %MON land_grdW_min_T              =   1.2813155865875E-02
(PID.TID 0000.0001) %MON land_grdW_min_N              =   1.9577654182966E-02
(PID.TID 0000.0001) // =======================================================
(PID.TID 0000.0001) // End MONITOR Land statistics
(PID.TID 0000.0001) // =======================================================
 cg2d: Sum(rhs),rhsMax =  -8.84756445884705E-09  2.19624829530996E+04
(PID.TID 0000.0001)      cg2d_init_res =   6.50153837127036E+03
(PID.TID 0000.0001)      cg2d_iters(min,last) =      -1      17
(PID.TID 0000.0001)      cg2d_last_res =   1.32080327033280E-11
(PID.TID 0000.0001) // =======================================================
(PID.TID 0000.0001) // Begin MONITOR dynamic field statistics
(PID.TID 0000.0001) // =======================================================
(PID.TID 0000.0001) %MON time_tsnumber                =                 69123
(PID.TID 0000.0001) %MON time_secondsf                =   3.1105350000000E+07
(PID.TID 0000.0001) %MON dynstat_eta_max              =   3.0660758597133E+03
(PID.TID 0000.0001) %MON dynstat_eta_min              =  -5.2773268425093E+03
(PID.TID 0000.0001) %MON dynstat_eta_mean             =   3.2131515562031E-13
(PID.TID 0000.0001) %MON dynstat_eta_sd               =   1.0942155416840E+03
(PID.TID 0000.0001) %MON dynstat_eta_del2             =   4.0059710389483E+00
(PID.TID 0000.0001) %MON dynstat_uvel_max             =   7.9691197224819E+01
(PID.TID 0000.0001) %MON dynstat_uvel_min             =  -6.9856874990879E+01
(PID.TID 0000.0001) %MON dynstat_uvel_mean            =   1.2464337112627E+00
(PID.TID 0000.0001) %MON dynstat_uvel_sd              =   1.3008375308044E+01
(PID.TID 0000.0001) %MON dynstat_uvel_del2            =   4.1585124335922E-02
(PID.TID 0000.0001) %MON dynstat_vvel_max             =   1.0460346404988E+02
(PID.TID 0000.0001) %MON dynstat_vvel_min             =  -8.5582688147394E+01
(PID.TID 0000.0001) %MON dynstat_vvel_mean            =   1.3729059474601E+00
(PID.TID 0000.0001) %MON dynstat_vvel_sd              =   1.2748631673157E+01
(PID.TID 0000.0001) %MON dynstat_vvel_del2            =   4.2846908526946E-02
(PID.TID 0000.0001) %MON dynstat_wvel_max             =   2.3686585269297E+00
(PID.TID 0000.0001) %MON dynstat_wvel_min             =  -2.7300591041862E+00
(PID.TID 0000.0001) %MON dynstat_wvel_mean            =   1.5585227713586E-04
(PID.TID 0000.0001) %MON dynstat_wvel_sd              =   1.7386611437751E-01
(PID.TID 0000.0001) %MON dynstat_wvel_del2            =   1.8792800089515E-03
(PID.TID 0000.0001) %MON dynstat_theta_max            =   4.9046179706441E+02
(PID.TID 0000.0001) %MON dynstat_theta_min            =   2.2222654929635E+02
(PID.TID 0000.0001) %MON dynstat_theta_mean           =   3.3062758922051E+02
(PID.TID 0000.0001) %MON dynstat_theta_sd             =   4.7456445571844E+01
(PID.TID 0000.0001) %MON dynstat_theta_del2           =   1.9444329671747E-02
(PID.TID 0000.0001) %MON dynstat_salt_max             =   2.0613663994554E+01
(PID.TID 0000.0001) %MON dynstat_salt_min             =  -1.0704791020081E+00
(PID.TID 0000.0001) %MON dynstat_salt_mean            =   2.2126399894981E+00
(PID.TID 0000.0001) %MON dynstat_salt_sd              =   3.1736923825678E+00
(PID.TID 0000.0001) %MON dynstat_salt_del2            =   5.6289386930374E-03
(PID.TID 0000.0001) %MON advcfl_uvel_max              =   2.0667480488485E-01
(PID.TID 0000.0001) %MON advcfl_vvel_max              =   2.2188227746369E-01
(PID.TID 0000.0001) %MON advcfl_wvel_max              =   4.9141063875351E-02
(PID.TID 0000.0001) %MON advcfl_W_hf_max              =   8.5510482998007E-02
(PID.TID 0000.0001) %MON am_eta_mean                  =   2.4495153062834E+10
(PID.TID 0000.0001) %MON am_uZo_mean                  =   2.8157197819015E+11
(PID.TID 0000.0001) %MON am_tot_mean                  =   3.0606713125298E+11
(PID.TID 0000.0001) %MON pe_b_mean                    =   4.1141403173806E+00
(PID.TID 0000.0001) %MON ke_max                       =   5.7201156154934E+03
(PID.TID 0000.0001) %MON ke_mean                      =   1.6656664196175E+02
(PID.TID 0000.0001) %MON ke_vol                       =   4.9464174767476E+19
(PID.TID 0000.0001) %MON vort_r_min                   =  -3.3453899592972E-04
(PID.TID 0000.0001) %MON vort_r_max                   =   4.7876893152617E-04
(PID.TID 0000.0001) %MON vort_a_mean                  =   6.4092774000398E-08
(PID.TID 0000.0001) %MON vort_a_sd                    =   9.1539925995823E-05
(PID.TID 0000.0001) %MON vort_p_mean                  =   6.5783548618266E-08
(PID.TID 0000.0001) %MON vort_p_sd                    =   9.8732416128366E-05
(PID.TID 0000.0001) %MON surfExpan_theta_mean         =  -7.8994095764750E-03
(PID.TID 0000.0001) %MON surfExpan_salt_mean          =   1.7502017820798E-03
(PID.TID 0000.0001) %MON surfExpan_Heat_mean          =   1.3452406450085E+00
(PID.TID 0000.0001) %MON En_Budget_T2PE_mean          =  -2.6110714503946E-01
(PID.TID 0000.0001) // =======================================================
(PID.TID 0000.0001) // End MONITOR dynamic field statistics
(PID.TID 0000.0001) // =======================================================
(PID.TID 0000.0001) // =======================================================
(PID.TID 0000.0001) // Begin MONITOR Land statistics
(PID.TID 0000.0001) // =======================================================
(PID.TID 0000.0001) %MON land_time_sec                =   3.1105350000000E+07
(PID.TID 0000.0001) %MON land_SnwH_ave_G              =   1.0189719770972E-01
(PID.TID 0000.0001) %MON land_SnwH_ave_S              =   1.7909594415408E-01
(PID.TID 0000.0001) %MON land_SnwH_ave_T              =   0.0000000000000E+00
(PID.TID 0000.0001) %MON land_SnwH_ave_N              =   1.4535860758895E-01
(PID.TID 0000.0001) %MON land_SnwH_max_S              =   2.1783759650881E+00
(PID.TID 0000.0001) %MON land_SnwH_max_T              =   0.0000000000000E+00
(PID.TID 0000.0001) %MON land_SnwH_max_N              =   1.3393010772608E+00
(PID.TID 0000.0001) %MON land_Tsrf_ave_G              =   7.3758852387312E-01
(PID.TID 0000.0001) %MON land_Tsrf_ave_S              =   3.0360020865393E+00
(PID.TID 0000.0001) %MON land_Tsrf_ave_T              =   2.2938776300542E+01
(PID.TID 0000.0001) %MON land_Tsrf_ave_N              =  -1.4817067292876E+01
(PID.TID 0000.0001) %MON land_Tsrf_min_S              =  -2.3222610575560E+01
(PID.TID 0000.0001) %MON land_Tsrf_min_T              =   3.2279749969174E+00
(PID.TID 0000.0001) %MON land_Tsrf_min_N              =  -5.6178087126329E+01
(PID.TID 0000.0001) %MON land_Tsrf_max_S              =   3.6835683957508E+01
(PID.TID 0000.0001) %MON land_Tsrf_max_T              =   3.9582070048716E+01
(PID.TID 0000.0001) %MON land_Tsrf_max_N              =   2.2755994222310E+01
(PID.TID 0000.0001) %MON land_Tgr1_ave_G              =   1.1732074661381E+00
(PID.TID 0000.0001) %MON land_Tgr1_ave_S              =   1.1538133654342E+00
(PID.TID 0000.0001) %MON land_Tgr1_ave_T              =   2.2938776300542E+01
(PID.TID 0000.0001) %MON land_Tgr1_ave_N              =  -1.3352841738589E+01
(PID.TID 0000.0001) %MON land_Tgr1_min_S              =  -2.5633447466651E+01
(PID.TID 0000.0001) %MON land_Tgr1_min_T              =   3.2279749969174E+00
(PID.TID 0000.0001) %MON land_Tgr1_min_N              =  -4.8299865959972E+01
(PID.TID 0000.0001) %MON land_Tgr1_max_S              =   3.6835683957508E+01
(PID.TID 0000.0001) %MON land_Tgr1_max_T              =   3.9582070048716E+01
(PID.TID 0000.0001) %MON land_Tgr1_max_N              =   2.2755994222310E+01
(PID.TID 0000.0001) %MON land_Tgr2_ave_G              =   6.1849631587309E+00
(PID.TID 0000.0001) %MON land_Tgr2_ave_S              =  -1.4428071133048E+01
(PID.TID 0000.0001) %MON land_Tgr2_ave_T              =   2.3334510313330E+01
(PID.TID 0000.0001) %MON land_Tgr2_ave_N              =   1.2958377407507E+00
(PID.TID 0000.0001) %MON land_Tgr2_min_S              =  -5.4418195735128E+01
(PID.TID 0000.0001) %MON land_Tgr2_min_T              =  -8.3147108616184E-04
(PID.TID 0000.0001) %MON land_Tgr2_min_N              =  -3.5971997869047E+01
(PID.TID 0000.0001) %MON land_Tgr2_max_S              =   2.6659373820062E+01
(PID.TID 0000.0001) %MON land_Tgr2_max_T              =   3.1461256018057E+01
(PID.TID 0000.0001) %MON land_Tgr2_max_N              =   2.8323263136442E+01
(PID.TID 0000.0001) %MON land_TotEnerg_G              =  -5.4960295298383E+21
(PID.TID 0000.0001) %MON land_TotEnerg_S              =  -4.0528473046321E+21
(PID.TID 0000.0001) %MON land_TotEnerg_T              =   7.5075699229360E+21
(PID.TID 0000.0001) %MON land_TotEnerg_N              =  -8.9507521481422E+21
(PID.TID 0000.0001) %MON land_grdW_ave_G              =   5.3571892692349E-01
(PID.TID 0000.0001) %MON land_grdW_ave_S              =   3.8804290148301E-01
(PID.TID 0000.0001) %MON land_grdW_ave_T              =   4.9145396540718E-01
(PID.TID 0000.0001) %MON land_grdW_ave_N              =   6.1227851577563E-01
(PID.TID 0000.0001) %MON land_grdW_min_S              =   2.0739644366308E-03
(PID.TID 0000.0001) %MON land_grdW_min_T              =   1.2818240476791E-02
(PID.TID 0000.0001) %MON land_grdW_min_N              =   1.9577654182966E-02
(PID.TID 0000.0001) // =======================================================
(PID.TID 0000.0001) // End MONITOR Land statistics
(PID.TID 0000.0001) // =======================================================
 cg2d: Sum(rhs),rhsMax =  -1.16415321826935E-08  2.17036891708478E+04
(PID.TID 0000.0001)      cg2d_init_res =   6.57961433185949E+03
(PID.TID 0000.0001)      cg2d_iters(min,last) =      -1      17
(PID.TID 0000.0001)      cg2d_last_res =   1.37019380426775E-11
(PID.TID 0000.0001) // =======================================================
(PID.TID 0000.0001) // Begin MONITOR dynamic field statistics
(PID.TID 0000.0001) // =======================================================
(PID.TID 0000.0001) %MON time_tsnumber                =                 69124
(PID.TID 0000.0001) %MON time_secondsf                =   3.1105800000000E+07
(PID.TID 0000.0001) %MON dynstat_eta_max              =   3.0309978275609E+03
(PID.TID 0000.0001) %MON dynstat_eta_min              =  -5.2386975913556E+03
(PID.TID 0000.0001) %MON dynstat_eta_mean             =  -5.1410424899250E-14
(PID.TID 0000.0001) %MON dynstat_eta_sd               =   1.0873334288226E+03
(PID.TID 0000.0001) %MON dynstat_eta_del2             =   4.0016437551043E+00
(PID.TID 0000.0001) %MON dynstat_uvel_max             =   7.9928503576559E+01
(PID.TID 0000.0001) %MON dynstat_uvel_min             =  -7.0043347822298E+01
(PID.TID 0000.0001) %MON dynstat_uvel_mean            =   1.2472448719337E+00
(PID.TID 0000.0001) %MON dynstat_uvel_sd              =   1.3006852026536E+01
(PID.TID 0000.0001) %MON dynstat_uvel_del2            =   4.1590644556121E-02
(PID.TID 0000.0001) %MON dynstat_vvel_max             =   1.0464564348484E+02
(PID.TID 0000.0001) %MON dynstat_vvel_min             =  -8.5760716654406E+01
(PID.TID 0000.0001) %MON dynstat_vvel_mean            =   1.3738556593647E+00
(PID.TID 0000.0001) %MON dynstat_vvel_sd              =   1.2753310592982E+01
(PID.TID 0000.0001) %MON dynstat_vvel_del2            =   4.2855979726549E-02
(PID.TID 0000.0001) %MON dynstat_wvel_max             =   2.3887527616716E+00
(PID.TID 0000.0001) %MON dynstat_wvel_min             =  -2.7832381301053E+00
(PID.TID 0000.0001) %MON dynstat_wvel_mean            =   1.6242066084684E-04
(PID.TID 0000.0001) %MON dynstat_wvel_sd              =   1.7402853428792E-01
(PID.TID 0000.0001) %MON dynstat_wvel_del2            =   1.8832338469038E-03
(PID.TID 0000.0001) %MON dynstat_theta_max            =   4.9056478280720E+02
(PID.TID 0000.0001) %MON dynstat_theta_min            =   2.2214168017487E+02
(PID.TID 0000.0001) %MON dynstat_theta_mean           =   3.3062812153613E+02
(PID.TID 0000.0001) %MON dynstat_theta_sd             =   4.7455655084178E+01
(PID.TID 0000.0001) %MON dynstat_theta_del2           =   1.9457775371282E-02
(PID.TID 0000.0001) %MON dynstat_salt_max             =   2.0626293244590E+01
(PID.TID 0000.0001) %MON dynstat_salt_min             =  -1.0708854682286E+00
(PID.TID 0000.0001) %MON dynstat_salt_mean            =   2.2124706978433E+00
(PID.TID 0000.0001) %MON dynstat_salt_sd              =   3.1737600828901E+00
(PID.TID 0000.0001) %MON dynstat_salt_del2            =   5.6317978893371E-03
(PID.TID 0000.0001) %MON advcfl_uvel_max              =   2.0427766794897E-01
(PID.TID 0000.0001) %MON advcfl_vvel_max              =   2.2182153847920E-01
(PID.TID 0000.0001) %MON advcfl_wvel_max              =   5.0098286341896E-02
(PID.TID 0000.0001) %MON advcfl_W_hf_max              =   7.9831587895081E-02
(PID.TID 0000.0001) %MON am_eta_mean                  =   2.4484217241087E+10
(PID.TID 0000.0001) %MON am_uZo_mean                  =   2.8161635503051E+11
(PID.TID 0000.0001) %MON am_tot_mean                  =   3.0610057227160E+11
(PID.TID 0000.0001) %MON pe_b_mean                    =   4.0596574523287E+00
(PID.TID 0000.0001) %MON ke_max                       =   5.7187992523911E+03
(PID.TID 0000.0001) %MON ke_mean                      =   1.6660845795276E+02
(PID.TID 0000.0001) %MON ke_vol                       =   4.9464174767476E+19
(PID.TID 0000.0001) %MON vort_r_min                   =  -3.2391212462958E-04
(PID.TID 0000.0001) %MON vort_r_max                   =   4.7165674736796E-04
(PID.TID 0000.0001) %MON vort_a_mean                  =   6.4092774000342E-08
(PID.TID 0000.0001) %MON vort_a_sd                    =   9.1539406805530E-05
(PID.TID 0000.0001) %MON vort_p_mean                  =   6.5783549023642E-08
(PID.TID 0000.0001) %MON vort_p_sd                    =   9.8732507081706E-05
(PID.TID 0000.0001) %MON surfExpan_theta_mean         =  -1.0134945411659E-02
(PID.TID 0000.0001) %MON surfExpan_salt_mean          =   1.6604360325231E-03
(PID.TID 0000.0001) %MON surfExpan_Heat_mean          =   1.2087869798076E+00
(PID.TID 0000.0001) %MON En_Budget_T2PE_mean          =  -4.4411164903759E-01
(PID.TID 0000.0001) // =======================================================
(PID.TID 0000.0001) // End MONITOR dynamic field statistics
(PID.TID 0000.0001) // =======================================================
(PID.TID 0000.0001) // =======================================================
(PID.TID 0000.0001) // Begin MONITOR Land statistics
(PID.TID 0000.0001) // =======================================================
(PID.TID 0000.0001) %MON land_time_sec                =   3.1105800000000E+07
(PID.TID 0000.0001) %MON land_SnwH_ave_G              =   1.0190159242448E-01
(PID.TID 0000.0001) %MON land_SnwH_ave_S              =   1.7909429346150E-01
(PID.TID 0000.0001) %MON land_SnwH_ave_T              =   0.0000000000000E+00
(PID.TID 0000.0001) %MON land_SnwH_ave_N              =   1.4536786077351E-01
(PID.TID 0000.0001) %MON land_SnwH_max_S              =   2.1783651621050E+00
(PID.TID 0000.0001) %MON land_SnwH_max_T              =   0.0000000000000E+00
(PID.TID 0000.0001) %MON land_SnwH_max_N              =   1.3394588040862E+00
(PID.TID 0000.0001) %MON land_Tsrf_ave_G              =   7.4174170774888E-01
(PID.TID 0000.0001) %MON land_Tsrf_ave_S              =   3.0373576085122E+00
(PID.TID 0000.0001) %MON land_Tsrf_ave_T              =   2.2940404870973E+01
(PID.TID 0000.0001) %MON land_Tsrf_ave_N              =  -1.4810338005628E+01
(PID.TID 0000.0001) %MON land_Tsrf_min_S              =  -2.3253458402414E+01
(PID.TID 0000.0001) %MON land_Tsrf_min_T              =   3.2160701233575E+00
(PID.TID 0000.0001) %MON land_Tsrf_min_N              =  -5.6255330967391E+01
(PID.TID 0000.0001) %MON land_Tsrf_max_S              =   3.6859263491837E+01
(PID.TID 0000.0001) %MON land_Tsrf_max_T              =   3.9558968469035E+01
(PID.TID 0000.0001) %MON land_Tsrf_max_N              =   2.2775528361834E+01
(PID.TID 0000.0001) %MON land_Tgr1_ave_G              =   1.1794511093782E+00
(PID.TID 0000.0001) %MON land_Tgr1_ave_S              =   1.1634482244235E+00
(PID.TID 0000.0001) %MON land_Tgr1_ave_T              =   2.2940404870973E+01
(PID.TID 0000.0001) %MON land_Tgr1_ave_N              =  -1.3344596170602E+01
(PID.TID 0000.0001) %MON land_Tgr1_min_S              =  -2.5630115267836E+01
(PID.TID 0000.0001) %MON land_Tgr1_min_T              =   3.2160701233575E+00
(PID.TID 0000.0001) %MON land_Tgr1_min_N              =  -4.8309010784236E+01
(PID.TID 0000.0001) %MON land_Tgr1_max_S              =   3.6859263491837E+01
(PID.TID 0000.0001) %MON land_Tgr1_max_T              =   3.9558968469035E+01
(PID.TID 0000.0001) %MON land_Tgr1_max_N              =   2.2775528361834E+01
(PID.TID 0000.0001) %MON land_Tgr2_ave_G              =   6.1849078699639E+00
(PID.TID 0000.0001) %MON land_Tgr2_ave_S              =  -1.4427826431355E+01
(PID.TID 0000.0001) %MON land_Tgr2_ave_T              =   2.3334500563019E+01
(PID.TID 0000.0001) %MON land_Tgr2_ave_N              =   1.2956565605260E+00
(PID.TID 0000.0001) %MON land_Tgr2_min_S              =  -5.4417640669132E+01
(PID.TID 0000.0001) %MON land_Tgr2_min_T              =  -7.8089485902107E-04
(PID.TID 0000.0001) %MON land_Tgr2_min_N              =  -3.5972026989524E+01
(PID.TID 0000.0001) %MON land_Tgr2_max_S              =   2.6659368191096E+01
(PID.TID 0000.0001) %MON land_Tgr2_max_T              =   3.1461079733641E+01
(PID.TID 0000.0001) %MON land_Tgr2_max_N              =   2.8323039458184E+01
(PID.TID 0000.0001) %MON land_TotEnerg_G              =  -5.4960096070269E+21
(PID.TID 0000.0001) %MON land_TotEnerg_S              =  -4.0527817882149E+21
(PID.TID 0000.0001) %MON land_TotEnerg_T              =   7.5075658717502E+21
(PID.TID 0000.0001) %MON land_TotEnerg_N              =  -8.9507936905622E+21
(PID.TID 0000.0001) %MON land_grdW_ave_G              =   5.3571838179711E-01
(PID.TID 0000.0001) %MON land_grdW_ave_S              =   3.8804161313841E-01
(PID.TID 0000.0001) %MON land_grdW_ave_T              =   4.9145277986389E-01
(PID.TID 0000.0001) %MON land_grdW_ave_N              =   6.1227863480248E-01
(PID.TID 0000.0001) %MON land_grdW_min_S              =   2.0739644366308E-03
(PID.TID 0000.0001) %MON land_grdW_min_T              =   1.2823443675379E-02
(PID.TID 0000.0001) %MON land_grdW_min_N              =   1.9577654182966E-02
(PID.TID 0000.0001) // =======================================================
(PID.TID 0000.0001) // End MONITOR Land statistics
(PID.TID 0000.0001) // =======================================================
 cg2d: Sum(rhs),rhsMax =  -6.05359673500061E-09  2.14452387390354E+04
(PID.TID 0000.0001)      cg2d_init_res =   6.66076503822514E+03
(PID.TID 0000.0001)      cg2d_iters(min,last) =      -1      17
(PID.TID 0000.0001)      cg2d_last_res =   1.42864639507454E-11
(PID.TID 0000.0001) // =======================================================
(PID.TID 0000.0001) // Begin MONITOR dynamic field statistics
(PID.TID 0000.0001) // =======================================================
(PID.TID 0000.0001) %MON time_tsnumber                =                 69125
(PID.TID 0000.0001) %MON time_secondsf                =   3.1106250000000E+07
(PID.TID 0000.0001) %MON dynstat_eta_max              =   2.9992171780474E+03
(PID.TID 0000.0001) %MON dynstat_eta_min              =  -5.2076968914689E+03
(PID.TID 0000.0001) %MON dynstat_eta_mean             =   2.4419951827144E-13
(PID.TID 0000.0001) %MON dynstat_eta_sd               =   1.0801150327787E+03
(PID.TID 0000.0001) %MON dynstat_eta_del2             =   4.0531635168866E+00
(PID.TID 0000.0001) %MON dynstat_uvel_max             =   8.0148442217764E+01
(PID.TID 0000.0001) %MON dynstat_uvel_min             =  -7.0323231731067E+01
(PID.TID 0000.0001) %MON dynstat_uvel_mean            =   1.2480630813604E+00
(PID.TID 0000.0001) %MON dynstat_uvel_sd              =   1.3005828770035E+01
(PID.TID 0000.0001) %MON dynstat_uvel_del2            =   4.1596784949729E-02
(PID.TID 0000.0001) %MON dynstat_vvel_max             =   1.0468501630566E+02
(PID.TID 0000.0001) %MON dynstat_vvel_min             =  -8.5895275301168E+01
(PID.TID 0000.0001) %MON dynstat_vvel_mean            =   1.3749101468803E+00
(PID.TID 0000.0001) %MON dynstat_vvel_sd              =   1.2757974497606E+01
(PID.TID 0000.0001) %MON dynstat_vvel_del2            =   4.2863939608925E-02
(PID.TID 0000.0001) %MON dynstat_wvel_max             =   2.3930309089202E+00
(PID.TID 0000.0001) %MON dynstat_wvel_min             =  -2.8072968667286E+00
(PID.TID 0000.0001) %MON dynstat_wvel_mean            =   1.5791878078662E-04
(PID.TID 0000.0001) %MON dynstat_wvel_sd              =   1.7420790495111E-01
(PID.TID 0000.0001) %MON dynstat_wvel_del2            =   1.8874950866111E-03
(PID.TID 0000.0001) %MON dynstat_theta_max            =   4.9066883385520E+02
(PID.TID 0000.0001) %MON dynstat_theta_min            =   2.2205740975805E+02
(PID.TID 0000.0001) %MON dynstat_theta_mean           =   3.3062859221518E+02
(PID.TID 0000.0001) %MON dynstat_theta_sd             =   4.7454918072891E+01
(PID.TID 0000.0001) %MON dynstat_theta_del2           =   1.9472597855229E-02
(PID.TID 0000.0001) %MON dynstat_salt_max             =   2.0638602764922E+01
(PID.TID 0000.0001) %MON dynstat_salt_min             =  -1.0709062963072E+00
(PID.TID 0000.0001) %MON dynstat_salt_mean            =   2.2123252578448E+00
(PID.TID 0000.0001) %MON dynstat_salt_sd              =   3.1738439535057E+00
(PID.TID 0000.0001) %MON dynstat_salt_del2            =   5.6345969751105E-03
(PID.TID 0000.0001) %MON advcfl_uvel_max              =   2.0191897466799E-01
(PID.TID 0000.0001) %MON advcfl_vvel_max              =   2.2166611253108E-01
(PID.TID 0000.0001) %MON advcfl_wvel_max              =   5.0531343601115E-02
(PID.TID 0000.0001) %MON advcfl_W_hf_max              =   7.5509990683055E-02
(PID.TID 0000.0001) %MON am_eta_mean                  =   2.4468378422785E+10
(PID.TID 0000.0001) %MON am_uZo_mean                  =   2.8166523597854E+11
(PID.TID 0000.0001) %MON am_tot_mean                  =   3.0613361440133E+11
(PID.TID 0000.0001) %MON pe_b_mean                    =   4.0021263930654E+00
(PID.TID 0000.0001) %MON ke_max                       =   5.7167484429179E+03
(PID.TID 0000.0001) %MON ke_mean                      =   1.6665673120369E+02
(PID.TID 0000.0001) %MON ke_vol                       =   4.9464174767476E+19
(PID.TID 0000.0001) %MON vort_r_min                   =  -3.1160179639345E-04
(PID.TID 0000.0001) %MON vort_r_max                   =   4.5864969118918E-04
(PID.TID 0000.0001) %MON vort_a_mean                  =   6.4092774000309E-08
(PID.TID 0000.0001) %MON vort_a_sd                    =   9.1538720685651E-05
(PID.TID 0000.0001) %MON vort_p_mean                  =   6.5783549632607E-08
(PID.TID 0000.0001) %MON vort_p_sd                    =   9.8732812677584E-05
(PID.TID 0000.0001) %MON surfExpan_theta_mean         =  -1.2302739143459E-02
(PID.TID 0000.0001) %MON surfExpan_salt_mean          =   1.3642042952526E-03
(PID.TID 0000.0001) %MON surfExpan_Heat_mean          =   9.3091194421766E-01
(PID.TID 0000.0001) %MON En_Budget_T2PE_mean          =  -4.6787211124879E-01
(PID.TID 0000.0001) // =======================================================
(PID.TID 0000.0001) // End MONITOR dynamic field statistics
(PID.TID 0000.0001) // =======================================================
(PID.TID 0000.0001) // =======================================================
(PID.TID 0000.0001) // Begin MONITOR Land statistics
(PID.TID 0000.0001) // =======================================================
(PID.TID 0000.0001) %MON land_time_sec                =   3.1106250000000E+07
(PID.TID 0000.0001) %MON land_SnwH_ave_G              =   1.0190598563219E-01
(PID.TID 0000.0001) %MON land_SnwH_ave_S              =   1.7909269625140E-01
(PID.TID 0000.0001) %MON land_SnwH_ave_T              =   0.0000000000000E+00
(PID.TID 0000.0001) %MON land_SnwH_ave_N              =   1.4537709394166E-01
(PID.TID 0000.0001) %MON land_SnwH_max_S              =   2.1783542471048E+00
(PID.TID 0000.0001) %MON land_SnwH_max_T              =   0.0000000000000E+00
(PID.TID 0000.0001) %MON land_SnwH_max_N              =   1.3396094611336E+00
(PID.TID 0000.0001) %MON land_Tsrf_ave_G              =   7.4513143431360E-01
(PID.TID 0000.0001) %MON land_Tsrf_ave_S              =   3.0373621024215E+00
(PID.TID 0000.0001) %MON land_Tsrf_ave_T              =   2.2941743352704E+01
(PID.TID 0000.0001) %MON land_Tsrf_ave_N              =  -1.4804501206396E+01
(PID.TID 0000.0001) %MON land_Tsrf_min_S              =  -2.3277033169490E+01
(PID.TID 0000.0001) %MON land_Tsrf_min_T              =   3.2048550548607E+00
(PID.TID 0000.0001) %MON land_Tsrf_min_N              =  -5.6324894567815E+01
(PID.TID 0000.0001) %MON land_Tsrf_max_S              =   3.6881204164059E+01
(PID.TID 0000.0001) %MON land_Tsrf_max_T              =   3.9537381391305E+01
(PID.TID 0000.0001) %MON land_Tsrf_max_N              =   2.2793672239745E+01
(PID.TID 0000.0001) %MON land_Tgr1_ave_G              =   1.1853329901071E+00
(PID.TID 0000.0001) %MON land_Tgr1_ave_S              =   1.1721885490830E+00
(PID.TID 0000.0001) %MON land_Tgr1_ave_T              =   2.2941743352704E+01
(PID.TID 0000.0001) %MON land_Tgr1_ave_N              =  -1.3336590638641E+01
(PID.TID 0000.0001) %MON land_Tgr1_min_S              =  -2.5626866641026E+01
(PID.TID 0000.0001) %MON land_Tgr1_min_T              =   3.2048550548607E+00
(PID.TID 0000.0001) %MON land_Tgr1_min_N              =  -4.8318316081526E+01
(PID.TID 0000.0001) %MON land_Tgr1_max_S              =   3.6881204164059E+01
(PID.TID 0000.0001) %MON land_Tgr1_max_T              =   3.9537381391305E+01
(PID.TID 0000.0001) %MON land_Tgr1_max_N              =   2.2793672239745E+01
(PID.TID 0000.0001) %MON land_Tgr2_ave_G              =   6.1848520208343E+00
(PID.TID 0000.0001) %MON land_Tgr2_ave_S              =  -1.4427583766144E+01
(PID.TID 0000.0001) %MON land_Tgr2_ave_T              =   2.3334489954974E+01
(PID.TID 0000.0001) %MON land_Tgr2_ave_N              =   1.2954754883318E+00
(PID.TID 0000.0001) %MON land_Tgr2_min_S              =  -5.4417084615269E+01
(PID.TID 0000.0001) %MON land_Tgr2_min_T              =  -1.0740308708029E-03
(PID.TID 0000.0001) %MON land_Tgr2_min_N              =  -3.5972054678189E+01
(PID.TID 0000.0001) %MON land_Tgr2_max_S              =   2.6659362655133E+01
(PID.TID 0000.0001) %MON land_Tgr2_max_T              =   3.1460903689063E+01
(PID.TID 0000.0001) %MON land_Tgr2_max_N              =   2.8322816099053E+01
(PID.TID 0000.0001) %MON land_TotEnerg_G              =  -5.4959961276338E+21
(PID.TID 0000.0001) %MON land_TotEnerg_S              =  -4.0527189201841E+21
(PID.TID 0000.0001) %MON land_TotEnerg_T              =   7.5075601864656E+21
(PID.TID 0000.0001) %MON land_TotEnerg_N              =  -8.9508373939152E+21
(PID.TID 0000.0001) %MON land_grdW_ave_G              =   5.3571781241298E-01
(PID.TID 0000.0001) %MON land_grdW_ave_S              =   3.8804037880846E-01
(PID.TID 0000.0001) %MON land_grdW_ave_T              =   4.9145152021746E-01
(PID.TID 0000.0001) %MON land_grdW_ave_N              =   6.1227873793780E-01
(PID.TID 0000.0001) %MON land_grdW_min_S              =   2.0739644366308E-03
(PID.TID 0000.0001) %MON land_grdW_min_T              =   1.2828768625253E-02
(PID.TID 0000.0001) %MON land_grdW_min_N              =   1.9577654182966E-02
(PID.TID 0000.0001) // =======================================================
(PID.TID 0000.0001) // End MONITOR Land statistics
(PID.TID 0000.0001) // =======================================================
 cg2d: Sum(rhs),rhsMax =  -3.72529029846191E-09  2.12057317803701E+04
(PID.TID 0000.0001)      cg2d_init_res =   6.67351442645877E+03
(PID.TID 0000.0001)      cg2d_iters(min,last) =      -1      17
(PID.TID 0000.0001)      cg2d_last_res =   1.47162479789931E-11
(PID.TID 0000.0001) // =======================================================
(PID.TID 0000.0001) // Begin MONITOR dynamic field statistics
(PID.TID 0000.0001) // =======================================================
(PID.TID 0000.0001) %MON time_tsnumber                =                 69126
(PID.TID 0000.0001) %MON time_secondsf                =   3.1106700000000E+07
(PID.TID 0000.0001) %MON dynstat_eta_max              =   2.9733082169580E+03
(PID.TID 0000.0001) %MON dynstat_eta_min              =  -5.1822115514800E+03
(PID.TID 0000.0001) %MON dynstat_eta_mean             =   1.6708388092256E-13
(PID.TID 0000.0001) %MON dynstat_eta_sd               =   1.0728514100393E+03
(PID.TID 0000.0001) %MON dynstat_eta_del2             =   4.1315207180902E+00
(PID.TID 0000.0001) %MON dynstat_uvel_max             =   8.0345683604918E+01
(PID.TID 0000.0001) %MON dynstat_uvel_min             =  -7.0562217562023E+01
(PID.TID 0000.0001) %MON dynstat_uvel_mean            =   1.2488896975035E+00
(PID.TID 0000.0001) %MON dynstat_uvel_sd              =   1.3005182259474E+01
(PID.TID 0000.0001) %MON dynstat_uvel_del2            =   4.1604136191490E-02
(PID.TID 0000.0001) %MON dynstat_vvel_max             =   1.0472239428438E+02
(PID.TID 0000.0001) %MON dynstat_vvel_min             =  -8.5989581178489E+01
(PID.TID 0000.0001) %MON dynstat_vvel_mean            =   1.3760528827087E+00
(PID.TID 0000.0001) %MON dynstat_vvel_sd              =   1.2762523209393E+01
(PID.TID 0000.0001) %MON dynstat_vvel_del2            =   4.2871161537805E-02
(PID.TID 0000.0001) %MON dynstat_wvel_max             =   2.3801278622125E+00
(PID.TID 0000.0001) %MON dynstat_wvel_min             =  -2.8194200764351E+00
(PID.TID 0000.0001) %MON dynstat_wvel_mean            =   1.4885846846196E-04
(PID.TID 0000.0001) %MON dynstat_wvel_sd              =   1.7439739084514E-01
(PID.TID 0000.0001) %MON dynstat_wvel_del2            =   1.8918976951477E-03
(PID.TID 0000.0001) %MON dynstat_theta_max            =   4.9076739805702E+02
(PID.TID 0000.0001) %MON dynstat_theta_min            =   2.2197346981969E+02
(PID.TID 0000.0001) %MON dynstat_theta_mean           =   3.3062901047635E+02
(PID.TID 0000.0001) %MON dynstat_theta_sd             =   4.7454239785701E+01
(PID.TID 0000.0001) %MON dynstat_theta_del2           =   1.9487934025867E-02
(PID.TID 0000.0001) %MON dynstat_salt_max             =   2.0650537604634E+01
(PID.TID 0000.0001) %MON dynstat_salt_min             =  -1.0705538997182E+00
(PID.TID 0000.0001) %MON dynstat_salt_mean            =   2.2121991748263E+00
(PID.TID 0000.0001) %MON dynstat_salt_sd              =   3.1739347357045E+00
(PID.TID 0000.0001) %MON dynstat_salt_del2            =   5.6375291067946E-03
(PID.TID 0000.0001) %MON advcfl_uvel_max              =   1.9966887879263E-01
(PID.TID 0000.0001) %MON advcfl_vvel_max              =   2.2144383394944E-01
(PID.TID 0000.0001) %MON advcfl_wvel_max              =   5.0749561375831E-02
(PID.TID 0000.0001) %MON advcfl_W_hf_max              =   7.7520314725754E-02
(PID.TID 0000.0001) %MON am_eta_mean                  =   2.4447865198474E+10
(PID.TID 0000.0001) %MON am_uZo_mean                  =   2.8171834250825E+11
(PID.TID 0000.0001) %MON am_tot_mean                  =   3.0616620770673E+11
(PID.TID 0000.0001) %MON pe_b_mean                    =   3.9439857176891E+00
(PID.TID 0000.0001) %MON ke_max                       =   5.7141483156417E+03
(PID.TID 0000.0001) %MON ke_mean                      =   1.6670857091853E+02
(PID.TID 0000.0001) %MON ke_vol                       =   4.9464174767476E+19
(PID.TID 0000.0001) %MON vort_r_min                   =  -3.0478420423853E-04
(PID.TID 0000.0001) %MON vort_r_max                   =   4.3958338027049E-04
(PID.TID 0000.0001) %MON vort_a_mean                  =   6.4092774000366E-08
(PID.TID 0000.0001) %MON vort_a_sd                    =   9.1537802834960E-05
(PID.TID 0000.0001) %MON vort_p_mean                  =   6.5783550432657E-08
(PID.TID 0000.0001) %MON vort_p_sd                    =   9.8733326587043E-05
(PID.TID 0000.0001) %MON surfExpan_theta_mean         =  -1.4416604497440E-02
(PID.TID 0000.0001) %MON surfExpan_salt_mean          =   1.0004367448860E-03
(PID.TID 0000.0001) %MON surfExpan_Heat_mean          =   6.1081715144841E-01
(PID.TID 0000.0001) %MON En_Budget_T2PE_mean          =  -4.2302695302772E-01
(PID.TID 0000.0001) // =======================================================
(PID.TID 0000.0001) // End MONITOR dynamic field statistics
(PID.TID 0000.0001) // =======================================================
(PID.TID 0000.0001) // =======================================================
(PID.TID 0000.0001) // Begin MONITOR Land statistics
(PID.TID 0000.0001) // =======================================================
(PID.TID 0000.0001) %MON land_time_sec                =   3.1106700000000E+07
(PID.TID 0000.0001) %MON land_SnwH_ave_G              =   1.0191032128297E-01
(PID.TID 0000.0001) %MON land_SnwH_ave_S              =   1.7909115652454E-01
(PID.TID 0000.0001) %MON land_SnwH_ave_T              =   0.0000000000000E+00
(PID.TID 0000.0001) %MON land_SnwH_ave_N              =   1.4538619450665E-01
(PID.TID 0000.0001) %MON land_SnwH_max_S              =   2.1783432699048E+00
(PID.TID 0000.0001) %MON land_SnwH_max_T              =   0.0000000000000E+00
(PID.TID 0000.0001) %MON land_SnwH_max_N              =   1.3397536444955E+00
(PID.TID 0000.0001) %MON land_Tsrf_ave_G              =   7.4748421448690E-01
(PID.TID 0000.0001) %MON land_Tsrf_ave_S              =   3.0366782820649E+00
(PID.TID 0000.0001) %MON land_Tsrf_ave_T              =   2.2942738326418E+01
(PID.TID 0000.0001) %MON land_Tsrf_ave_N              =  -1.4800275311114E+01
(PID.TID 0000.0001) %MON land_Tsrf_min_S              =  -2.3294737983920E+01
(PID.TID 0000.0001) %MON land_Tsrf_min_T              =   3.1943506149855E+00
(PID.TID 0000.0001) %MON land_Tsrf_min_N              =  -5.6402121627825E+01
(PID.TID 0000.0001) %MON land_Tsrf_max_S              =   3.6901512359205E+01
(PID.TID 0000.0001) %MON land_Tsrf_max_T              =   3.9517146485285E+01
(PID.TID 0000.0001) %MON land_Tsrf_max_N              =   2.2810445986751E+01
(PID.TID 0000.0001) %MON land_Tgr1_ave_G              =   1.1908398754348E+00
(PID.TID 0000.0001) %MON land_Tgr1_ave_S              =   1.1800915593976E+00
(PID.TID 0000.0001) %MON land_Tgr1_ave_T              =   2.2942738326418E+01
(PID.TID 0000.0001) %MON land_Tgr1_ave_N              =  -1.3328833969422E+01
(PID.TID 0000.0001) %MON land_Tgr1_min_S              =  -2.5623680695445E+01
(PID.TID 0000.0001) %MON land_Tgr1_min_T              =   3.1943506149855E+00
(PID.TID 0000.0001) %MON land_Tgr1_min_N              =  -4.8327802531700E+01
(PID.TID 0000.0001) %MON land_Tgr1_max_S              =   3.6901512359205E+01
(PID.TID 0000.0001) %MON land_Tgr1_max_T              =   3.9517146485285E+01
(PID.TID 0000.0001) %MON land_Tgr1_max_N              =   2.2810445986751E+01
(PID.TID 0000.0001) %MON land_Tgr2_ave_G              =   6.1847973820330E+00
(PID.TID 0000.0001) %MON land_Tgr2_ave_S              =  -1.4427338888266E+01
(PID.TID 0000.0001) %MON land_Tgr2_ave_T              =   2.3334481763313E+01
(PID.TID 0000.0001) %MON land_Tgr2_ave_N              =   1.2952945021754E+00
(PID.TID 0000.0001) %MON land_Tgr2_min_S              =  -5.4416527618764E+01
(PID.TID 0000.0001) %MON land_Tgr2_min_T              =  -9.0353829894009E-04
(PID.TID 0000.0001) %MON land_Tgr2_min_N              =  -3.5972080957443E+01
(PID.TID 0000.0001) %MON land_Tgr2_max_S              =   2.6659357188102E+01
(PID.TID 0000.0001) %MON land_Tgr2_max_T              =   3.1460727847620E+01
(PID.TID 0000.0001) %MON land_Tgr2_max_N              =   2.8322593006768E+01
(PID.TID 0000.0001) %MON land_TotEnerg_G              =  -5.4959881267762E+21
(PID.TID 0000.0001) %MON land_TotEnerg_S              =  -4.0526585715723E+21
(PID.TID 0000.0001) %MON land_TotEnerg_T              =   7.5075528768070E+21
(PID.TID 0000.0001) %MON land_TotEnerg_N              =  -8.9508824320109E+21
(PID.TID 0000.0001) %MON land_grdW_ave_G              =   5.3571728190904E-01
(PID.TID 0000.0001) %MON land_grdW_ave_S              =   3.8803920303369E-01
(PID.TID 0000.0001) %MON land_grdW_ave_T              =   4.9145036509663E-01
(PID.TID 0000.0001) %MON land_grdW_ave_N              =   6.1227882986128E-01
(PID.TID 0000.0001) %MON land_grdW_min_S              =   2.0739644366308E-03
(PID.TID 0000.0001) %MON land_grdW_min_T              =   1.2834236110505E-02
(PID.TID 0000.0001) %MON land_grdW_min_N              =   1.9577654182966E-02
(PID.TID 0000.0001) // =======================================================
(PID.TID 0000.0001) // End MONITOR Land statistics
(PID.TID 0000.0001) // =======================================================
 cg2d: Sum(rhs),rhsMax =  -9.31322574615479E-10  2.09962760120402E+04
(PID.TID 0000.0001)      cg2d_init_res =   6.65752697899358E+03
(PID.TID 0000.0001)      cg2d_iters(min,last) =      -1      17
(PID.TID 0000.0001)      cg2d_last_res =   1.49972693367530E-11
(PID.TID 0000.0001) // =======================================================
(PID.TID 0000.0001) // Begin MONITOR dynamic field statistics
(PID.TID 0000.0001) // =======================================================
(PID.TID 0000.0001) %MON time_tsnumber                =                 69127
(PID.TID 0000.0001) %MON time_secondsf                =   3.1107150000000E+07
(PID.TID 0000.0001) %MON dynstat_eta_max              =   2.9544348730813E+03
(PID.TID 0000.0001) %MON dynstat_eta_min              =  -5.1601252326717E+03
(PID.TID 0000.0001) %MON dynstat_eta_mean             =   3.7272558051956E-13
(PID.TID 0000.0001) %MON dynstat_eta_sd               =   1.0657482932950E+03
(PID.TID 0000.0001) %MON dynstat_eta_del2             =   4.2118458483673E+00
(PID.TID 0000.0001) %MON dynstat_uvel_max             =   8.0772614511182E+01
(PID.TID 0000.0001) %MON dynstat_uvel_min             =  -7.0769504640262E+01
(PID.TID 0000.0001) %MON dynstat_uvel_mean            =   1.2497280664292E+00
(PID.TID 0000.0001) %MON dynstat_uvel_sd              =   1.3004815283391E+01
(PID.TID 0000.0001) %MON dynstat_uvel_del2            =   4.1613245039298E-02
(PID.TID 0000.0001) %MON dynstat_vvel_max             =   1.0475902403900E+02
(PID.TID 0000.0001) %MON dynstat_vvel_min             =  -8.6034954211035E+01
(PID.TID 0000.0001) %MON dynstat_vvel_mean            =   1.3772646449948E+00
(PID.TID 0000.0001) %MON dynstat_vvel_sd              =   1.2766860002290E+01
(PID.TID 0000.0001) %MON dynstat_vvel_del2            =   4.2877758475118E-02
(PID.TID 0000.0001) %MON dynstat_wvel_max             =   2.3489357197340E+00
(PID.TID 0000.0001) %MON dynstat_wvel_min             =  -2.8321255443552E+00
(PID.TID 0000.0001) %MON dynstat_wvel_mean            =   1.3989560788992E-04
(PID.TID 0000.0001) %MON dynstat_wvel_sd              =   1.7459595178843E-01
(PID.TID 0000.0001) %MON dynstat_wvel_del2            =   1.8964678893216E-03
(PID.TID 0000.0001) %MON dynstat_theta_max            =   4.9085592035749E+02
(PID.TID 0000.0001) %MON dynstat_theta_min            =   2.2188970145164E+02
(PID.TID 0000.0001) %MON dynstat_theta_mean           =   3.3062939601325E+02
(PID.TID 0000.0001) %MON dynstat_theta_sd             =   4.7453609728053E+01
(PID.TID 0000.0001) %MON dynstat_theta_del2           =   1.9502768667346E-02
(PID.TID 0000.0001) %MON dynstat_salt_max             =   2.0662025622467E+01
(PID.TID 0000.0001) %MON dynstat_salt_min             =  -1.0698395761502E+00
(PID.TID 0000.0001) %MON dynstat_salt_mean            =   2.2120843260216E+00
(PID.TID 0000.0001) %MON dynstat_salt_sd              =   3.1740269062397E+00
(PID.TID 0000.0001) %MON dynstat_salt_del2            =   5.6405654164377E-03
(PID.TID 0000.0001) %MON advcfl_uvel_max              =   1.9718225117713E-01
(PID.TID 0000.0001) %MON advcfl_vvel_max              =   2.2120501588764E-01
(PID.TID 0000.0001) %MON advcfl_wvel_max              =   5.0978259798393E-02
(PID.TID 0000.0001) %MON advcfl_W_hf_max              =   7.8943331916292E-02
(PID.TID 0000.0001) %MON am_eta_mean                  =   2.4422935673112E+10
(PID.TID 0000.0001) %MON am_uZo_mean                  =   2.8177538005197E+11
(PID.TID 0000.0001) %MON am_tot_mean                  =   3.0619831572508E+11
(PID.TID 0000.0001) %MON pe_b_mean                    =   3.8870113054950E+00
(PID.TID 0000.0001) %MON ke_max                       =   5.7111666318868E+03
(PID.TID 0000.0001) %MON ke_mean                      =   1.6676146401764E+02
(PID.TID 0000.0001) %MON ke_vol                       =   4.9464174767476E+19
(PID.TID 0000.0001) %MON vort_r_min                   =  -3.2758619795727E-04
(PID.TID 0000.0001) %MON vort_r_max                   =   4.1440274266363E-04
(PID.TID 0000.0001) %MON vort_a_mean                  =   6.4092774000389E-08
(PID.TID 0000.0001) %MON vort_a_sd                    =   9.1536625924530E-05
(PID.TID 0000.0001) %MON vort_p_mean                  =   6.5783551316087E-08
(PID.TID 0000.0001) %MON vort_p_sd                    =   9.8734066952814E-05
(PID.TID 0000.0001) %MON surfExpan_theta_mean         =  -1.6471391731484E-02
(PID.TID 0000.0001) %MON surfExpan_salt_mean          =   6.6694285309800E-04
(PID.TID 0000.0001) %MON surfExpan_Heat_mean          =   3.1813115597948E-01
(PID.TID 0000.0001) %MON En_Budget_T2PE_mean          =  -3.7366815576741E-01
(PID.TID 0000.0001) // =======================================================
(PID.TID 0000.0001) // End MONITOR dynamic field statistics
(PID.TID 0000.0001) // =======================================================
(PID.TID 0000.0001) // =======================================================
(PID.TID 0000.0001) // Begin MONITOR Land statistics
(PID.TID 0000.0001) // =======================================================
(PID.TID 0000.0001) %MON land_time_sec                =   3.1107150000000E+07
(PID.TID 0000.0001) %MON land_SnwH_ave_G              =   1.0191459831368E-01
(PID.TID 0000.0001) %MON land_SnwH_ave_S              =   1.7908967486455E-01
(PID.TID 0000.0001) %MON land_SnwH_ave_T              =   0.0000000000000E+00
(PID.TID 0000.0001) %MON land_SnwH_ave_N              =   1.4539516017128E-01
(PID.TID 0000.0001) %MON land_SnwH_max_S              =   2.1783322817738E+00
(PID.TID 0000.0001) %MON land_SnwH_max_T              =   0.0000000000000E+00
(PID.TID 0000.0001) %MON land_SnwH_max_N              =   1.3398918350477E+00
(PID.TID 0000.0001) %MON land_Tsrf_ave_G              =   7.5060394290172E-01
(PID.TID 0000.0001) %MON land_Tsrf_ave_S              =   3.0356526108208E+00
(PID.TID 0000.0001) %MON land_Tsrf_ave_T              =   2.2943409535101E+01
(PID.TID 0000.0001) %MON land_Tsrf_ave_N              =  -1.4794201300701E+01
(PID.TID 0000.0001) %MON land_Tsrf_min_S              =  -2.3308441079534E+01
(PID.TID 0000.0001) %MON land_Tsrf_min_T              =   3.1845476325594E+00
(PID.TID 0000.0001) %MON land_Tsrf_min_N              =  -5.6479404162098E+01
(PID.TID 0000.0001) %MON land_Tsrf_max_S              =   3.6920140311861E+01
(PID.TID 0000.0001) %MON land_Tsrf_max_T              =   3.9498112292116E+01
(PID.TID 0000.0001) %MON land_Tsrf_max_N              =   2.2825829056983E+01
(PID.TID 0000.0001) %MON land_Tgr1_ave_G              =   1.1960868491139E+00
(PID.TID 0000.0001) %MON land_Tgr1_ave_S              =   1.1871936395938E+00
(PID.TID 0000.0001) %MON land_Tgr1_ave_T              =   2.2943409535101E+01
(PID.TID 0000.0001) %MON land_Tgr1_ave_N              =  -1.3321122372989E+01
(PID.TID 0000.0001) %MON land_Tgr1_min_S              =  -2.5620541903019E+01
(PID.TID 0000.0001) %MON land_Tgr1_min_T              =   3.1845476325594E+00
(PID.TID 0000.0001) %MON land_Tgr1_min_N              =  -4.8337469733979E+01
(PID.TID 0000.0001) %MON land_Tgr1_max_S              =   3.6920140311861E+01
(PID.TID 0000.0001) %MON land_Tgr1_max_T              =   3.9498112292116E+01
(PID.TID 0000.0001) %MON land_Tgr1_max_N              =   2.2825829056983E+01
(PID.TID 0000.0001) %MON land_Tgr2_ave_G              =   6.1847427608919E+00
(PID.TID 0000.0001) %MON land_Tgr2_ave_S              =  -1.4427093934233E+01
(PID.TID 0000.0001) %MON land_Tgr2_ave_T              =   2.3334473504092E+01
(PID.TID 0000.0001) %MON land_Tgr2_ave_N              =   1.2951135719591E+00
(PID.TID 0000.0001) %MON land_Tgr2_min_S              =  -5.4415969724601E+01
(PID.TID 0000.0001) %MON land_Tgr2_min_T              =  -7.3308810003050E-04
(PID.TID 0000.0001) %MON land_Tgr2_min_N              =  -3.5972105845105E+01
(PID.TID 0000.0001) %MON land_Tgr2_max_S              =   2.6659351783586E+01
(PID.TID 0000.0001) %MON land_Tgr2_max_T              =   3.1460552180311E+01
(PID.TID 0000.0001) %MON land_Tgr2_max_N              =   2.8322370132944E+01
(PID.TID 0000.0001) %MON land_TotEnerg_G              =  -5.4959853343592E+21
(PID.TID 0000.0001) %MON land_TotEnerg_S              =  -4.0526006180658E+21
(PID.TID 0000.0001) %MON land_TotEnerg_T              =   7.5075448646549E+21
(PID.TID 0000.0001) %MON land_TotEnerg_N              =  -8.9509295809483E+21
(PID.TID 0000.0001) %MON land_grdW_ave_G              =   5.3571685680587E-01
(PID.TID 0000.0001) %MON land_grdW_ave_S              =   3.8803808436035E-01
(PID.TID 0000.0001) %MON land_grdW_ave_T              =   4.9144944527909E-01
(PID.TID 0000.0001) %MON land_grdW_ave_N              =   6.1227895582715E-01
(PID.TID 0000.0001) %MON land_grdW_min_S              =   2.0739644366308E-03
(PID.TID 0000.0001) %MON land_grdW_min_T              =   1.2839865870265E-02
(PID.TID 0000.0001) %MON land_grdW_min_N              =   1.9577654182966E-02
(PID.TID 0000.0001) // =======================================================
(PID.TID 0000.0001) // End MONITOR Land statistics
(PID.TID 0000.0001) // =======================================================
 cg2d: Sum(rhs),rhsMax =  -5.58793544769287E-09  2.08214745108296E+04
(PID.TID 0000.0001)      cg2d_init_res =   6.64301925569929E+03
(PID.TID 0000.0001)      cg2d_iters(min,last) =      -1      17
(PID.TID 0000.0001)      cg2d_last_res =   1.52020960327344E-11
(PID.TID 0000.0001) // =======================================================
(PID.TID 0000.0001) // Begin MONITOR dynamic field statistics
(PID.TID 0000.0001) // =======================================================
(PID.TID 0000.0001) %MON time_tsnumber                =                 69128
(PID.TID 0000.0001) %MON time_secondsf                =   3.1107600000000E+07
(PID.TID 0000.0001) %MON dynstat_eta_max              =   2.9427075838393E+03
(PID.TID 0000.0001) %MON dynstat_eta_min              =  -5.1407462858474E+03
(PID.TID 0000.0001) %MON dynstat_eta_mean             =   1.9278909337219E-13
(PID.TID 0000.0001) %MON dynstat_eta_sd               =   1.0589517680051E+03
(PID.TID 0000.0001) %MON dynstat_eta_del2             =   4.2798742453766E+00
(PID.TID 0000.0001) %MON dynstat_uvel_max             =   8.1194287942131E+01
(PID.TID 0000.0001) %MON dynstat_uvel_min             =  -7.0948224814990E+01
(PID.TID 0000.0001) %MON dynstat_uvel_mean            =   1.2505888743572E+00
(PID.TID 0000.0001) %MON dynstat_uvel_sd              =   1.3004633793329E+01
(PID.TID 0000.0001) %MON dynstat_uvel_del2            =   4.1624203135012E-02
(PID.TID 0000.0001) %MON dynstat_vvel_max             =   1.0479623122890E+02
(PID.TID 0000.0001) %MON dynstat_vvel_min             =  -8.6026497870417E+01
(PID.TID 0000.0001) %MON dynstat_vvel_mean            =   1.3785179762612E+00
(PID.TID 0000.0001) %MON dynstat_vvel_sd              =   1.2770916169694E+01
(PID.TID 0000.0001) %MON dynstat_vvel_del2            =   4.2883668493453E-02
(PID.TID 0000.0001) %MON dynstat_wvel_max             =   2.2985965034334E+00
(PID.TID 0000.0001) %MON dynstat_wvel_min             =  -2.8478872450575E+00
(PID.TID 0000.0001) %MON dynstat_wvel_mean            =   1.3336029714824E-04
(PID.TID 0000.0001) %MON dynstat_wvel_sd              =   1.7480444610567E-01
(PID.TID 0000.0001) %MON dynstat_wvel_del2            =   1.9011989797106E-03
(PID.TID 0000.0001) %MON dynstat_theta_max            =   4.9093207987060E+02
(PID.TID 0000.0001) %MON dynstat_theta_min            =   2.2180588211938E+02
(PID.TID 0000.0001) %MON dynstat_theta_mean           =   3.3062973160248E+02
(PID.TID 0000.0001) %MON dynstat_theta_sd             =   4.7453032235189E+01
(PID.TID 0000.0001) %MON dynstat_theta_del2           =   1.9516269345396E-02
(PID.TID 0000.0001) %MON dynstat_salt_max             =   2.0672947320227E+01
(PID.TID 0000.0001) %MON dynstat_salt_min             =  -1.0687736897587E+00
(PID.TID 0000.0001) %MON dynstat_salt_mean            =   2.2119863011691E+00
(PID.TID 0000.0001) %MON dynstat_salt_sd              =   3.1741231860171E+00
(PID.TID 0000.0001) %MON dynstat_salt_del2            =   5.6433845538056E-03
(PID.TID 0000.0001) %MON advcfl_uvel_max              =   2.0148107813929E-01
(PID.TID 0000.0001) %MON advcfl_vvel_max              =   2.2096565245969E-01
(PID.TID 0000.0001) %MON advcfl_wvel_max              =   5.1261970411034E-02
(PID.TID 0000.0001) %MON advcfl_W_hf_max              =   7.9871521755310E-02
(PID.TID 0000.0001) %MON am_eta_mean                  =   2.4393879248134E+10
(PID.TID 0000.0001) %MON am_uZo_mean                  =   2.8183602775559E+11
(PID.TID 0000.0001) %MON am_tot_mean                  =   3.0622990700372E+11
(PID.TID 0000.0001) %MON pe_b_mean                    =   3.8324933450431E+00
(PID.TID 0000.0001) %MON ke_max                       =   5.7078987466056E+03
(PID.TID 0000.0001) %MON ke_mean                      =   1.6681329427872E+02
(PID.TID 0000.0001) %MON ke_vol                       =   4.9464174767476E+19
(PID.TID 0000.0001) %MON vort_r_min                   =  -3.8026383436063E-04
(PID.TID 0000.0001) %MON vort_r_max                   =   3.8317444479772E-04
(PID.TID 0000.0001) %MON vort_a_mean                  =   6.4092774000366E-08
(PID.TID 0000.0001) %MON vort_a_sd                    =   9.1535197244662E-05
(PID.TID 0000.0001) %MON vort_p_mean                  =   6.5783552199042E-08
(PID.TID 0000.0001) %MON vort_p_sd                    =   9.8735063190392E-05
(PID.TID 0000.0001) %MON surfExpan_theta_mean         =  -1.8406271317391E-02
(PID.TID 0000.0001) %MON surfExpan_salt_mean          =   4.1746082130510E-04
(PID.TID 0000.0001) %MON surfExpan_Heat_mean          =   8.9520753056196E-02
(PID.TID 0000.0001) %MON En_Budget_T2PE_mean          =  -3.5033290098717E-01
(PID.TID 0000.0001) // =======================================================
(PID.TID 0000.0001) // End MONITOR dynamic field statistics
(PID.TID 0000.0001) // =======================================================
(PID.TID 0000.0001) // =======================================================
(PID.TID 0000.0001) // Begin MONITOR Land statistics
(PID.TID 0000.0001) // =======================================================
(PID.TID 0000.0001) %MON land_time_sec                =   3.1107600000000E+07
(PID.TID 0000.0001) %MON land_SnwH_ave_G              =   1.0191882049134E-01
(PID.TID 0000.0001) %MON land_SnwH_ave_S              =   1.7908825627293E-01
(PID.TID 0000.0001) %MON land_SnwH_ave_T              =   0.0000000000000E+00
(PID.TID 0000.0001) %MON land_SnwH_ave_N              =   1.4540399682480E-01
(PID.TID 0000.0001) %MON land_SnwH_max_S              =   2.1783213251087E+00
(PID.TID 0000.0001) %MON land_SnwH_max_T              =   0.0000000000000E+00
(PID.TID 0000.0001) %MON land_SnwH_max_N              =   1.3400244345866E+00
(PID.TID 0000.0001) %MON land_Tsrf_ave_G              =   7.5289494962174E-01
(PID.TID 0000.0001) %MON land_Tsrf_ave_S              =   3.0343086234935E+00
(PID.TID 0000.0001) %MON land_Tsrf_ave_T              =   2.2943730933122E+01
(PID.TID 0000.0001) %MON land_Tsrf_ave_N              =  -1.4789438228426E+01
(PID.TID 0000.0001) %MON land_Tsrf_min_S              =  -2.3321527091154E+01
(PID.TID 0000.0001) %MON land_Tsrf_min_T              =   3.1746860429866E+00
(PID.TID 0000.0001) %MON land_Tsrf_min_N              =  -5.6556469578297E+01
(PID.TID 0000.0001) %MON land_Tsrf_max_S              =   3.6937568321866E+01
(PID.TID 0000.0001) %MON land_Tsrf_max_T              =   3.9480166922612E+01
(PID.TID 0000.0001) %MON land_Tsrf_max_N              =   2.2839802653966E+01
(PID.TID 0000.0001) %MON land_Tgr1_ave_G              =   1.2010151559678E+00
(PID.TID 0000.0001) %MON land_Tgr1_ave_S              =   1.1935437205533E+00
(PID.TID 0000.0001) %MON land_Tgr1_ave_T              =   2.2943730933122E+01
(PID.TID 0000.0001) %MON land_Tgr1_ave_N              =  -1.3313570720118E+01
(PID.TID 0000.0001) %MON land_Tgr1_min_S              =  -2.5617442695435E+01
(PID.TID 0000.0001) %MON land_Tgr1_min_T              =   3.1746860429866E+00
(PID.TID 0000.0001) %MON land_Tgr1_min_N              =  -4.8347316536585E+01
(PID.TID 0000.0001) %MON land_Tgr1_max_S              =   3.6937568321866E+01
(PID.TID 0000.0001) %MON land_Tgr1_max_T              =   3.9480166922612E+01
(PID.TID 0000.0001) %MON land_Tgr1_max_N              =   2.2839802653966E+01
(PID.TID 0000.0001) %MON land_Tgr2_ave_G              =   6.1846882239188E+00
(PID.TID 0000.0001) %MON land_Tgr2_ave_S              =  -1.4426848914694E+01
(PID.TID 0000.0001) %MON land_Tgr2_ave_T              =   2.3334465284061E+01
(PID.TID 0000.0001) %MON land_Tgr2_ave_N              =   1.2949327618814E+00
(PID.TID 0000.0001) %MON land_Tgr2_min_S              =  -5.4415410979357E+01
(PID.TID 0000.0001) %MON land_Tgr2_min_T              =  -5.6269589113574E-04
(PID.TID 0000.0001) %MON land_Tgr2_min_N              =  -3.5972129353791E+01
(PID.TID 0000.0001) %MON land_Tgr2_max_S              =   2.6659346436433E+01
(PID.TID 0000.0001) %MON land_Tgr2_max_T              =   3.1460376662663E+01
(PID.TID 0000.0001) %MON land_Tgr2_max_N              =   2.8322147433109E+01
(PID.TID 0000.0001) %MON land_TotEnerg_G              =  -5.4959883352333E+21
(PID.TID 0000.0001) %MON land_TotEnerg_S              =  -4.0525449051774E+21
(PID.TID 0000.0001) %MON land_TotEnerg_T              =   7.5075344627278E+21
(PID.TID 0000.0001) %MON land_TotEnerg_N              =  -8.9509778927836E+21
(PID.TID 0000.0001) %MON land_grdW_ave_G              =   5.3571642544221E-01
(PID.TID 0000.0001) %MON land_grdW_ave_S              =   3.8803702333521E-01
(PID.TID 0000.0001) %MON land_grdW_ave_T              =   4.9144848429349E-01
(PID.TID 0000.0001) %MON land_grdW_ave_N              =   6.1227907849717E-01
(PID.TID 0000.0001) %MON land_grdW_min_S              =   2.0739644366308E-03
(PID.TID 0000.0001) %MON land_grdW_min_T              =   1.2845679816994E-02
(PID.TID 0000.0001) %MON land_grdW_min_N              =   1.9577654182966E-02
(PID.TID 0000.0001) // =======================================================
(PID.TID 0000.0001) // End MONITOR Land statistics
(PID.TID 0000.0001) // =======================================================
 cg2d: Sum(rhs),rhsMax =  -7.45058059692383E-09  2.06812276561467E+04
(PID.TID 0000.0001)      cg2d_init_res =   6.63829648915207E+03
(PID.TID 0000.0001)      cg2d_iters(min,last) =      -1      17
(PID.TID 0000.0001)      cg2d_last_res =   1.54421023001274E-11
(PID.TID 0000.0001) // =======================================================
(PID.TID 0000.0001) // Begin MONITOR dynamic field statistics
(PID.TID 0000.0001) // =======================================================
(PID.TID 0000.0001) %MON time_tsnumber                =                 69129
(PID.TID 0000.0001) %MON time_secondsf                =   3.1108050000000E+07
(PID.TID 0000.0001) %MON dynstat_eta_max              =   2.9374125890410E+03
(PID.TID 0000.0001) %MON dynstat_eta_min              =  -5.1246021469373E+03
(PID.TID 0000.0001) %MON dynstat_eta_mean             =   7.7115637348875E-14
(PID.TID 0000.0001) %MON dynstat_eta_sd               =   1.0525671028459E+03
(PID.TID 0000.0001) %MON dynstat_eta_del2             =   4.3308025094344E+00
(PID.TID 0000.0001) %MON dynstat_uvel_max             =   8.1581151222166E+01
(PID.TID 0000.0001) %MON dynstat_uvel_min             =  -7.1095481351573E+01
(PID.TID 0000.0001) %MON dynstat_uvel_mean            =   1.2514864710403E+00
(PID.TID 0000.0001) %MON dynstat_uvel_sd              =   1.3004544263632E+01
(PID.TID 0000.0001) %MON dynstat_uvel_del2            =   4.1636805573474E-02
(PID.TID 0000.0001) %MON dynstat_vvel_max             =   1.0483495420086E+02
(PID.TID 0000.0001) %MON dynstat_vvel_min             =  -8.5963916322495E+01
(PID.TID 0000.0001) %MON dynstat_vvel_mean            =   1.3797814273807E+00
(PID.TID 0000.0001) %MON dynstat_vvel_sd              =   1.2774654448074E+01
(PID.TID 0000.0001) %MON dynstat_vvel_del2            =   4.2888980945107E-02
(PID.TID 0000.0001) %MON dynstat_wvel_max             =   2.2286679577566E+00
(PID.TID 0000.0001) %MON dynstat_wvel_min             =  -2.8628037086141E+00
(PID.TID 0000.0001) %MON dynstat_wvel_mean            =   1.2974633883792E-04
(PID.TID 0000.0001) %MON dynstat_wvel_sd              =   1.7502717112149E-01
(PID.TID 0000.0001) %MON dynstat_wvel_del2            =   1.9063319883211E-03
(PID.TID 0000.0001) %MON dynstat_theta_max            =   4.9099548376773E+02
(PID.TID 0000.0001) %MON dynstat_theta_min            =   2.2172182597183E+02
(PID.TID 0000.0001) %MON dynstat_theta_mean           =   3.3063003173283E+02
(PID.TID 0000.0001) %MON dynstat_theta_sd             =   4.7452493692948E+01
(PID.TID 0000.0001) %MON dynstat_theta_del2           =   1.9528008801376E-02
(PID.TID 0000.0001) %MON dynstat_salt_max             =   2.0683288376341E+01
(PID.TID 0000.0001) %MON dynstat_salt_min             =  -1.0673656742667E+00
(PID.TID 0000.0001) %MON dynstat_salt_mean            =   2.2118992427036E+00
(PID.TID 0000.0001) %MON dynstat_salt_sd              =   3.1742233677320E+00
(PID.TID 0000.0001) %MON dynstat_salt_del2            =   5.6463389308345E-03
(PID.TID 0000.0001) %MON advcfl_uvel_max              =   2.1381783158273E-01
(PID.TID 0000.0001) %MON advcfl_vvel_max              =   2.2072479987211E-01
(PID.TID 0000.0001) %MON advcfl_wvel_max              =   5.1530466755054E-02
(PID.TID 0000.0001) %MON advcfl_W_hf_max              =   8.0349817816142E-02
(PID.TID 0000.0001) %MON am_eta_mean                  =   2.4361016690798E+10
(PID.TID 0000.0001) %MON am_uZo_mean                  =   2.8189994734083E+11
(PID.TID 0000.0001) %MON am_tot_mean                  =   3.0626096403163E+11
(PID.TID 0000.0001) %MON pe_b_mean                    =   3.7813767566336E+00
(PID.TID 0000.0001) %MON ke_max                       =   5.7043551672357E+03
(PID.TID 0000.0001) %MON ke_mean                      =   1.6686235172508E+02
(PID.TID 0000.0001) %MON ke_vol                       =   4.9464174767476E+19
(PID.TID 0000.0001) %MON vort_r_min                   =  -4.2903850056703E-04
(PID.TID 0000.0001) %MON vort_r_max                   =   3.4608702841936E-04
(PID.TID 0000.0001) %MON vort_a_mean                  =   6.4092774000366E-08
(PID.TID 0000.0001) %MON vort_a_sd                    =   9.1533549258444E-05
(PID.TID 0000.0001) %MON vort_p_mean                  =   6.5783553037990E-08
(PID.TID 0000.0001) %MON vort_p_sd                    =   9.8736338493172E-05
(PID.TID 0000.0001) %MON surfExpan_theta_mean         =  -2.0120664256209E-02
(PID.TID 0000.0001) %MON surfExpan_salt_mean          =   2.7185593110507E-04
(PID.TID 0000.0001) %MON surfExpan_Heat_mean          =  -6.4195635857418E-02
(PID.TID 0000.0001) %MON En_Budget_T2PE_mean          =  -3.5797749016968E-01
(PID.TID 0000.0001) // =======================================================
(PID.TID 0000.0001) // End MONITOR dynamic field statistics
(PID.TID 0000.0001) // =======================================================
(PID.TID 0000.0001) // =======================================================
(PID.TID 0000.0001) // Begin MONITOR Land statistics
(PID.TID 0000.0001) // =======================================================
(PID.TID 0000.0001) %MON land_time_sec                =   3.1108050000000E+07
(PID.TID 0000.0001) %MON land_SnwH_ave_G              =   1.0192299161178E-01
(PID.TID 0000.0001) %MON land_SnwH_ave_S              =   1.7908690216345E-01
(PID.TID 0000.0001) %MON land_SnwH_ave_T              =   0.0000000000000E+00
(PID.TID 0000.0001) %MON land_SnwH_ave_N              =   1.4541271155562E-01
(PID.TID 0000.0001) %MON land_SnwH_max_S              =   2.1783104303533E+00
(PID.TID 0000.0001) %MON land_SnwH_max_T              =   0.0000000000000E+00
(PID.TID 0000.0001) %MON land_SnwH_max_N              =   1.3401517947522E+00
(PID.TID 0000.0001) %MON land_Tsrf_ave_G              =   7.5488313438348E-01
(PID.TID 0000.0001) %MON land_Tsrf_ave_S              =   3.0325607934193E+00
(PID.TID 0000.0001) %MON land_Tsrf_ave_T              =   2.2943734850191E+01
(PID.TID 0000.0001) %MON land_Tsrf_ave_N              =  -1.4784936035879E+01
(PID.TID 0000.0001) %MON land_Tsrf_min_S              =  -2.3336292888658E+01
(PID.TID 0000.0001) %MON land_Tsrf_min_T              =   3.1659845341337E+00
(PID.TID 0000.0001) %MON land_Tsrf_min_N              =  -5.6633399942644E+01
(PID.TID 0000.0001) %MON land_Tsrf_max_S              =   3.6952947860656E+01
(PID.TID 0000.0001) %MON land_Tsrf_max_T              =   3.9463200045631E+01
(PID.TID 0000.0001) %MON land_Tsrf_max_N              =   2.2852374698279E+01
(PID.TID 0000.0001) %MON land_Tgr1_ave_G              =   1.2056234305063E+00
(PID.TID 0000.0001) %MON land_Tgr1_ave_S              =   1.1993924158268E+00
(PID.TID 0000.0001) %MON land_Tgr1_ave_T              =   2.2943734850191E+01
(PID.TID 0000.0001) %MON land_Tgr1_ave_N              =  -1.3306283078360E+01
(PID.TID 0000.0001) %MON land_Tgr1_min_S              =  -2.5614382119011E+01
(PID.TID 0000.0001) %MON land_Tgr1_min_T              =   3.1659845341337E+00
(PID.TID 0000.0001) %MON land_Tgr1_min_N              =  -4.8357342021803E+01
(PID.TID 0000.0001) %MON land_Tgr1_max_S              =   3.6952947860656E+01
(PID.TID 0000.0001) %MON land_Tgr1_max_T              =   3.9463200045631E+01
(PID.TID 0000.0001) %MON land_Tgr1_max_N              =   2.2852374698279E+01
(PID.TID 0000.0001) %MON land_Tgr2_ave_G              =   6.1846337397231E+00
(PID.TID 0000.0001) %MON land_Tgr2_ave_S              =  -1.4426603835813E+01
(PID.TID 0000.0001) %MON land_Tgr2_ave_T              =   2.3334457014149E+01
(PID.TID 0000.0001) %MON land_Tgr2_ave_N              =   1.2947520710338E+00
(PID.TID 0000.0001) %MON land_Tgr2_min_S              =  -5.4414851432028E+01
(PID.TID 0000.0001) %MON land_Tgr2_min_T              =  -3.9237442945436E-04
(PID.TID 0000.0001) %MON land_Tgr2_min_N              =  -3.5972151491373E+01
(PID.TID 0000.0001) %MON land_Tgr2_max_S              =   2.6659341141087E+01
(PID.TID 0000.0001) %MON land_Tgr2_max_T              =   3.1460201272067E+01
(PID.TID 0000.0001) %MON land_Tgr2_max_N              =   2.8321924867082E+01
(PID.TID 0000.0001) %MON land_TotEnerg_G              =  -5.4959960899536E+21
(PID.TID 0000.0001) %MON land_TotEnerg_S              =  -4.0524907075924E+21
(PID.TID 0000.0001) %MON land_TotEnerg_T              =   7.5075226606418E+21
(PID.TID 0000.0001) %MON land_TotEnerg_N              =  -8.9510280430030E+21
(PID.TID 0000.0001) %MON land_grdW_ave_G              =   5.3571603146994E-01
(PID.TID 0000.0001) %MON land_grdW_ave_S              =   3.8803601670331E-01
(PID.TID 0000.0001) %MON land_grdW_ave_T              =   4.9144761017802E-01
(PID.TID 0000.0001) %MON land_grdW_ave_N              =   6.1227920011141E-01
(PID.TID 0000.0001) %MON land_grdW_min_S              =   2.0739644366308E-03
(PID.TID 0000.0001) %MON land_grdW_min_T              =   1.2851699421415E-02
(PID.TID 0000.0001) %MON land_grdW_min_N              =   1.9577654182966E-02
(PID.TID 0000.0001) // =======================================================
(PID.TID 0000.0001) // End MONITOR Land statistics
(PID.TID 0000.0001) // =======================================================
 cg2d: Sum(rhs),rhsMax =  -5.12227416038513E-09  2.05726473695863E+04
(PID.TID 0000.0001)      cg2d_init_res =   6.61284182974497E+03
(PID.TID 0000.0001)      cg2d_iters(min,last) =      -1      17
(PID.TID 0000.0001)      cg2d_last_res =   1.56142824734242E-11
(PID.TID 0000.0001) // =======================================================
(PID.TID 0000.0001) // Begin MONITOR dynamic field statistics
(PID.TID 0000.0001) // =======================================================
(PID.TID 0000.0001) %MON time_tsnumber                =                 69130
(PID.TID 0000.0001) %MON time_secondsf                =   3.1108500000000E+07
(PID.TID 0000.0001) %MON dynstat_eta_max              =   2.9371925679934E+03
(PID.TID 0000.0001) %MON dynstat_eta_min              =  -5.1125695589306E+03
(PID.TID 0000.0001) %MON dynstat_eta_mean             =   4.1128339919400E-13
(PID.TID 0000.0001) %MON dynstat_eta_sd               =   1.0466702978210E+03
(PID.TID 0000.0001) %MON dynstat_eta_del2             =   4.3659451251537E+00
(PID.TID 0000.0001) %MON dynstat_uvel_max             =   8.1930218060169E+01
(PID.TID 0000.0001) %MON dynstat_uvel_min             =  -7.1207037068178E+01
(PID.TID 0000.0001) %MON dynstat_uvel_mean            =   1.2524348849180E+00
(PID.TID 0000.0001) %MON dynstat_uvel_sd              =   1.3004458702790E+01
(PID.TID 0000.0001) %MON dynstat_uvel_del2            =   4.1650264644022E-02
(PID.TID 0000.0001) %MON dynstat_vvel_max             =   1.0487540693605E+02
(PID.TID 0000.0001) %MON dynstat_vvel_min             =  -8.5849245817444E+01
(PID.TID 0000.0001) %MON dynstat_vvel_mean            =   1.3810246273559E+00
(PID.TID 0000.0001) %MON dynstat_vvel_sd              =   1.2778060102799E+01
(PID.TID 0000.0001) %MON dynstat_vvel_del2            =   4.2893994386623E-02
(PID.TID 0000.0001) %MON dynstat_wvel_max             =   2.1388565182349E+00
(PID.TID 0000.0001) %MON dynstat_wvel_min             =  -2.8726734297833E+00
(PID.TID 0000.0001) %MON dynstat_wvel_mean            =   1.2833805872324E-04
(PID.TID 0000.0001) %MON dynstat_wvel_sd              =   1.7526447960877E-01
(PID.TID 0000.0001) %MON dynstat_wvel_del2            =   1.9118499745751E-03
(PID.TID 0000.0001) %MON dynstat_theta_max            =   4.9104702452762E+02
(PID.TID 0000.0001) %MON dynstat_theta_min            =   2.2163743503699E+02
(PID.TID 0000.0001) %MON dynstat_theta_mean           =   3.3063030324758E+02
(PID.TID 0000.0001) %MON dynstat_theta_sd             =   4.7451998542799E+01
(PID.TID 0000.0001) %MON dynstat_theta_del2           =   1.9537927145590E-02
(PID.TID 0000.0001) %MON dynstat_salt_max             =   2.0693052776078E+01
(PID.TID 0000.0001) %MON dynstat_salt_min             =  -1.0656238047116E+00
(PID.TID 0000.0001) %MON dynstat_salt_mean            =   2.2118204234751E+00
(PID.TID 0000.0001) %MON dynstat_salt_sd              =   3.1743179298602E+00
(PID.TID 0000.0001) %MON dynstat_salt_del2            =   5.6494063728777E-03
(PID.TID 0000.0001) %MON advcfl_uvel_max              =   2.2590740889839E-01
(PID.TID 0000.0001) %MON advcfl_vvel_max              =   2.2047811147644E-01
(PID.TID 0000.0001) %MON advcfl_wvel_max              =   5.1708121736099E-02
(PID.TID 0000.0001) %MON advcfl_W_hf_max              =   8.0548566023922E-02
(PID.TID 0000.0001) %MON am_eta_mean                  =   2.4324699488507E+10
(PID.TID 0000.0001) %MON am_uZo_mean                  =   2.8196679210101E+11
(PID.TID 0000.0001) %MON am_tot_mean                  =   3.0629149158952E+11
(PID.TID 0000.0001) %MON pe_b_mean                    =   3.7343451666087E+00
(PID.TID 0000.0001) %MON ke_max                       =   5.7004793898310E+03
(PID.TID 0000.0001) %MON ke_mean                      =   1.6690728825705E+02
(PID.TID 0000.0001) %MON ke_vol                       =   4.9464174767476E+19
(PID.TID 0000.0001) %MON vort_r_min                   =  -4.7278435566127E-04
(PID.TID 0000.0001) %MON vort_r_max                   =   3.0346052723984E-04
(PID.TID 0000.0001) %MON vort_a_mean                  =   6.4092774000441E-08
(PID.TID 0000.0001) %MON vort_a_sd                    =   9.1531729575600E-05
(PID.TID 0000.0001) %MON vort_p_mean                  =   6.5783553822542E-08
(PID.TID 0000.0001) %MON vort_p_sd                    =   9.8737903711140E-05
(PID.TID 0000.0001) %MON surfExpan_theta_mean         =  -2.1489729749693E-02
(PID.TID 0000.0001) %MON surfExpan_salt_mean          =   2.2593412525079E-04
(PID.TID 0000.0001) %MON surfExpan_Heat_mean          =  -1.4850709125235E-01
(PID.TID 0000.0001) %MON En_Budget_T2PE_mean          =  -3.8457224650733E-01
(PID.TID 0000.0001) // =======================================================
(PID.TID 0000.0001) // End MONITOR dynamic field statistics
(PID.TID 0000.0001) // =======================================================
(PID.TID 0000.0001) // =======================================================
(PID.TID 0000.0001) // Begin MONITOR Land statistics
(PID.TID 0000.0001) // =======================================================
(PID.TID 0000.0001) %MON land_time_sec                =   3.1108500000000E+07
(PID.TID 0000.0001) %MON land_SnwH_ave_G              =   1.0192714965397E-01
(PID.TID 0000.0001) %MON land_SnwH_ave_S              =   1.7908561205269E-01
(PID.TID 0000.0001) %MON land_SnwH_ave_T              =   0.0000000000000E+00
(PID.TID 0000.0001) %MON land_SnwH_ave_N              =   1.4542137994265E-01
(PID.TID 0000.0001) %MON land_SnwH_max_S              =   2.1782996176010E+00
(PID.TID 0000.0001) %MON land_SnwH_max_T              =   0.0000000000000E+00
(PID.TID 0000.0001) %MON land_SnwH_max_N              =   1.3402742346360E+00
(PID.TID 0000.0001) %MON land_Tsrf_ave_G              =   7.5626958954490E-01
(PID.TID 0000.0001) %MON land_Tsrf_ave_S              =   3.0299683183368E+00
(PID.TID 0000.0001) %MON land_Tsrf_ave_T              =   2.2943432010387E+01
(PID.TID 0000.0001) %MON land_Tsrf_ave_N              =  -1.4781155197609E+01
(PID.TID 0000.0001) %MON land_Tsrf_min_S              =  -2.3353770409050E+01
(PID.TID 0000.0001) %MON land_Tsrf_min_T              =   3.1582721111954E+00
(PID.TID 0000.0001) %MON land_Tsrf_min_N              =  -5.6710340994142E+01
(PID.TID 0000.0001) %MON land_Tsrf_max_S              =   3.6966042995476E+01
(PID.TID 0000.0001) %MON land_Tsrf_max_T              =   3.9447109504911E+01
(PID.TID 0000.0001) %MON land_Tsrf_max_N              =   2.2863587577399E+01
(PID.TID 0000.0001) %MON land_Tgr1_ave_G              =   1.2099000739550E+00
(PID.TID 0000.0001) %MON land_Tgr1_ave_S              =   1.2045515118373E+00
(PID.TID 0000.0001) %MON land_Tgr1_ave_T              =   2.2943432010387E+01
(PID.TID 0000.0001) %MON land_Tgr1_ave_N              =  -1.3299229734408E+01
(PID.TID 0000.0001) %MON land_Tgr1_min_S              =  -2.5611363240620E+01
(PID.TID 0000.0001) %MON land_Tgr1_min_T              =   3.1582721111954E+00
(PID.TID 0000.0001) %MON land_Tgr1_min_N              =  -4.8367545682106E+01
(PID.TID 0000.0001) %MON land_Tgr1_max_S              =   3.6966042995476E+01
(PID.TID 0000.0001) %MON land_Tgr1_max_T              =   3.9447109504911E+01
(PID.TID 0000.0001) %MON land_Tgr1_max_N              =   2.2863587577399E+01
(PID.TID 0000.0001) %MON land_Tgr2_ave_G              =   6.1845792495231E+00
(PID.TID 0000.0001) %MON land_Tgr2_ave_S              =  -1.4426358706658E+01
(PID.TID 0000.0001) %MON land_Tgr2_ave_T              =   2.3334448763604E+01
(PID.TID 0000.0001) %MON land_Tgr2_ave_N              =   1.2945713393284E+00
(PID.TID 0000.0001) %MON land_Tgr2_min_S              =  -5.4414291133601E+01
(PID.TID 0000.0001) %MON land_Tgr2_min_T              =  -2.4571789367706E-04
(PID.TID 0000.0001) %MON land_Tgr2_min_N              =  -3.5972172262016E+01
(PID.TID 0000.0001) %MON land_Tgr2_max_S              =   2.6659335892946E+01
(PID.TID 0000.0001) %MON land_Tgr2_max_T              =   3.1460025986586E+01
(PID.TID 0000.0001) %MON land_Tgr2_max_N              =   2.8321702399285E+01
(PID.TID 0000.0001) %MON land_TotEnerg_G              =  -5.4960093311675E+21
(PID.TID 0000.0001) %MON land_TotEnerg_S              =  -4.0524385624212E+21
(PID.TID 0000.0001) %MON land_TotEnerg_T              =   7.5075086091178E+21
(PID.TID 0000.0001) %MON land_TotEnerg_N              =  -8.9510793778642E+21
(PID.TID 0000.0001) %MON land_grdW_ave_G              =   5.3571564177403E-01
(PID.TID 0000.0001) %MON land_grdW_ave_S              =   3.8803506152333E-01
(PID.TID 0000.0001) %MON land_grdW_ave_T              =   4.9144664934131E-01
(PID.TID 0000.0001) %MON land_grdW_ave_N              =   6.1227937174246E-01
(PID.TID 0000.0001) %MON land_grdW_min_S              =   2.0739644366308E-03
(PID.TID 0000.0001) %MON land_grdW_min_T              =   1.2857944119410E-02
(PID.TID 0000.0001) %MON land_grdW_min_N              =   1.9577654182966E-02
(PID.TID 0000.0001) // =======================================================
(PID.TID 0000.0001) // End MONITOR Land statistics
(PID.TID 0000.0001) // =======================================================
(PID.TID 0000.0001) %CHECKPOINT     69130 ckptA
(PID.TID 0000.0001)   Seconds in section "ALL                    [THE_MODEL_MAIN]":
(PID.TID 0000.0001)           User time:   6.3799999999999999
(PID.TID 0000.0001)         System time:  5.99999999999999978E-002
(PID.TID 0000.0001)     Wall clock time:   6.5119299888610840
(PID.TID 0000.0001)          No. starts:           1
(PID.TID 0000.0001)           No. stops:           1
(PID.TID 0000.0001)   Seconds in section "INITIALISE_FIXED       [THE_MODEL_MAIN]":
(PID.TID 0000.0001)           User time:  0.20000000000000001
(PID.TID 0000.0001)         System time:  2.00000000000000004E-002
(PID.TID 0000.0001)     Wall clock time:  0.24233198165893555
(PID.TID 0000.0001)          No. starts:           1
(PID.TID 0000.0001)           No. stops:           1
(PID.TID 0000.0001)   Seconds in section "THE_MAIN_LOOP          [THE_MODEL_MAIN]":
(PID.TID 0000.0001)           User time:   6.1799999999999997
(PID.TID 0000.0001)         System time:  3.99999999999999939E-002
(PID.TID 0000.0001)     Wall clock time:   6.2695560455322266
(PID.TID 0000.0001)          No. starts:           1
(PID.TID 0000.0001)           No. stops:           1
(PID.TID 0000.0001)   Seconds in section "INITIALISE_VARIA    [THE_MAIN_LOOP]":
(PID.TID 0000.0001)           User time:  0.23999999999999999
(PID.TID 0000.0001)         System time:  2.00000000000000004E-002
(PID.TID 0000.0001)     Wall clock time:  0.28052091598510742
(PID.TID 0000.0001)          No. starts:           1
(PID.TID 0000.0001)           No. stops:           1
(PID.TID 0000.0001)   Seconds in section "MAIN LOOP           [THE_MAIN_LOOP]":
(PID.TID 0000.0001)           User time:   5.9399999999999995
(PID.TID 0000.0001)         System time:  1.99999999999999969E-002
(PID.TID 0000.0001)     Wall clock time:   5.9890038967132568
(PID.TID 0000.0001)          No. starts:           1
(PID.TID 0000.0001)           No. stops:           1
(PID.TID 0000.0001)   Seconds in section "MAIN_DO_LOOP        [THE_MAIN_LOOP]":
(PID.TID 0000.0001)           User time:   5.9400000000000013
(PID.TID 0000.0001)         System time:  2.00000000000000039E-002
(PID.TID 0000.0001)     Wall clock time:   5.9889039993286133
(PID.TID 0000.0001)          No. starts:          10
(PID.TID 0000.0001)           No. stops:          10
(PID.TID 0000.0001)   Seconds in section "FORWARD_STEP        [MAIN_DO_LOOP]":
(PID.TID 0000.0001)           User time:   5.9400000000000013
(PID.TID 0000.0001)         System time:  2.00000000000000039E-002
(PID.TID 0000.0001)     Wall clock time:   5.9887180328369141
(PID.TID 0000.0001)          No. starts:          10
(PID.TID 0000.0001)           No. stops:          10
(PID.TID 0000.0001)   Seconds in section "LOAD_FIELDS_DRIVER  [FORWARD_STEP]":
(PID.TID 0000.0001)           User time:  1.99999999999995737E-002
(PID.TID 0000.0001)         System time:   0.0000000000000000
(PID.TID 0000.0001)     Wall clock time:  2.80363559722900391E-002
(PID.TID 0000.0001)          No. starts:          10
(PID.TID 0000.0001)           No. stops:          10
(PID.TID 0000.0001)   Seconds in section "EXTERNAL_FLDS_LOAD [LOAD_FLDS_DRIVER]":
(PID.TID 0000.0001)           User time:   0.0000000000000000
(PID.TID 0000.0001)         System time:   0.0000000000000000
(PID.TID 0000.0001)     Wall clock time:  9.82284545898437500E-005
(PID.TID 0000.0001)          No. starts:          10
(PID.TID 0000.0001)           No. stops:          10
(PID.TID 0000.0001)   Seconds in section "DO_ATMOSPHERIC_PHYS [FORWARD_STEP]":
(PID.TID 0000.0001)           User time:  0.83999999999999986
(PID.TID 0000.0001)         System time:  1.00000000000000019E-002
(PID.TID 0000.0001)     Wall clock time:  0.85423994064331055
(PID.TID 0000.0001)          No. starts:          10
(PID.TID 0000.0001)           No. stops:          10
(PID.TID 0000.0001)   Seconds in section "AIM_DO_PHYSICS [DO_ATMOSPHERIC_PHYS]":
(PID.TID 0000.0001)           User time:  0.83999999999999986
(PID.TID 0000.0001)         System time:  1.00000000000000019E-002
(PID.TID 0000.0001)     Wall clock time:  0.85403347015380859
(PID.TID 0000.0001)          No. starts:          10
(PID.TID 0000.0001)           No. stops:          10
(PID.TID 0000.0001)   Seconds in section "DO_OCEANIC_PHYS     [FORWARD_STEP]":
(PID.TID 0000.0001)           User time:   0.0000000000000000
(PID.TID 0000.0001)         System time:   0.0000000000000000
(PID.TID 0000.0001)     Wall clock time:  4.64916229248046875E-004
(PID.TID 0000.0001)          No. starts:          10
(PID.TID 0000.0001)           No. stops:          10
(PID.TID 0000.0001)   Seconds in section "DYNAMICS            [FORWARD_STEP]":
(PID.TID 0000.0001)           User time:   1.2599999999999989
(PID.TID 0000.0001)         System time:   0.0000000000000000
(PID.TID 0000.0001)     Wall clock time:   1.2560923099517822
(PID.TID 0000.0001)          No. starts:          10
(PID.TID 0000.0001)           No. stops:          10
(PID.TID 0000.0001)   Seconds in section "UPDATE_R_STAR       [FORWARD_STEP]":
(PID.TID 0000.0001)           User time:  7.99999999999991829E-002
(PID.TID 0000.0001)         System time:   0.0000000000000000
(PID.TID 0000.0001)     Wall clock time:  7.80506134033203125E-002
(PID.TID 0000.0001)          No. starts:          10
(PID.TID 0000.0001)           No. stops:          10
(PID.TID 0000.0001)   Seconds in section "UPDATE_CG2D         [FORWARD_STEP]":
(PID.TID 0000.0001)           User time:  5.00000000000007105E-002
(PID.TID 0000.0001)         System time:   0.0000000000000000
(PID.TID 0000.0001)     Wall clock time:  5.11627197265625000E-002
(PID.TID 0000.0001)          No. starts:          10
(PID.TID 0000.0001)           No. stops:          10
(PID.TID 0000.0001)   Seconds in section "SOLVE_FOR_PRESSURE  [FORWARD_STEP]":
(PID.TID 0000.0001)           User time:  0.50000000000000089
(PID.TID 0000.0001)         System time:   0.0000000000000000
(PID.TID 0000.0001)     Wall clock time:  0.50075817108154297
(PID.TID 0000.0001)          No. starts:          10
(PID.TID 0000.0001)           No. stops:          10
(PID.TID 0000.0001)   Seconds in section "MOM_CORRECTION_STEP [FORWARD_STEP]":
(PID.TID 0000.0001)           User time:  0.48999999999999932
(PID.TID 0000.0001)         System time:   0.0000000000000000
(PID.TID 0000.0001)     Wall clock time:  0.48465180397033691
(PID.TID 0000.0001)          No. starts:          10
(PID.TID 0000.0001)           No. stops:          10
(PID.TID 0000.0001)   Seconds in section "SHAP_FILT_UV       [MOM_CORR_STEP]":
(PID.TID 0000.0001)           User time:  0.43999999999999950
(PID.TID 0000.0001)         System time:   0.0000000000000000
(PID.TID 0000.0001)     Wall clock time:  0.44259214401245117
(PID.TID 0000.0001)          No. starts:          10
(PID.TID 0000.0001)           No. stops:          10
(PID.TID 0000.0001)   Seconds in section "INTEGR_CONTINUITY   [FORWARD_STEP]":
(PID.TID 0000.0001)           User time:  0.10999999999999943
(PID.TID 0000.0001)         System time:   0.0000000000000000
(PID.TID 0000.0001)     Wall clock time:  0.12879347801208496
(PID.TID 0000.0001)          No. starts:          10
(PID.TID 0000.0001)           No. stops:          10
(PID.TID 0000.0001)   Seconds in section "CALC_R_STAR         [FORWARD_STEP]":
(PID.TID 0000.0001)           User time:  5.99999999999996092E-002
(PID.TID 0000.0001)         System time:   0.0000000000000000
(PID.TID 0000.0001)     Wall clock time:  5.49230575561523438E-002
(PID.TID 0000.0001)          No. starts:          10
(PID.TID 0000.0001)           No. stops:          10
(PID.TID 0000.0001)   Seconds in section "BLOCKING_EXCHANGES  [FORWARD_STEP]":
(PID.TID 0000.0001)           User time:  4.99999999999998224E-002
(PID.TID 0000.0001)         System time:   0.0000000000000000
(PID.TID 0000.0001)     Wall clock time:  3.63578796386718750E-002
(PID.TID 0000.0001)          No. starts:          20
(PID.TID 0000.0001)           No. stops:          20
(PID.TID 0000.0001)   Seconds in section "THERMODYNAMICS      [FORWARD_STEP]":
(PID.TID 0000.0001)           User time:  0.88999999999999968
(PID.TID 0000.0001)         System time:   0.0000000000000000
(PID.TID 0000.0001)     Wall clock time:  0.88079261779785156
(PID.TID 0000.0001)          No. starts:          10
(PID.TID 0000.0001)           No. stops:          10
(PID.TID 0000.0001)   Seconds in section "TRC_CORRECTION_STEP [FORWARD_STEP]":
(PID.TID 0000.0001)           User time:  0.44000000000000039
(PID.TID 0000.0001)         System time:   0.0000000000000000
(PID.TID 0000.0001)     Wall clock time:  0.45539593696594238
(PID.TID 0000.0001)          No. starts:          10
(PID.TID 0000.0001)           No. stops:          10
(PID.TID 0000.0001)   Seconds in section "SHAP_FILT_TS       [TRC_CORR_STEP]":
(PID.TID 0000.0001)           User time:  0.43000000000000060
(PID.TID 0000.0001)         System time:   0.0000000000000000
(PID.TID 0000.0001)     Wall clock time:  0.43730998039245605
(PID.TID 0000.0001)          No. starts:          10
(PID.TID 0000.0001)           No. stops:          10
(PID.TID 0000.0001)   Seconds in section "DO_STATEVARS_TAVE   [FORWARD_STEP]":
(PID.TID 0000.0001)           User time:  0.33000000000000007
(PID.TID 0000.0001)         System time:   0.0000000000000000
(PID.TID 0000.0001)     Wall clock time:  0.33637595176696777
(PID.TID 0000.0001)          No. starts:          10
(PID.TID 0000.0001)           No. stops:          10
(PID.TID 0000.0001)   Seconds in section "MONITOR             [FORWARD_STEP]":
(PID.TID 0000.0001)           User time:  0.73000000000000043
(PID.TID 0000.0001)         System time:   0.0000000000000000
(PID.TID 0000.0001)     Wall clock time:  0.73389816284179688
(PID.TID 0000.0001)          No. starts:          10
(PID.TID 0000.0001)           No. stops:          10
(PID.TID 0000.0001)   Seconds in section "DO_THE_MODEL_IO     [FORWARD_STEP]":
(PID.TID 0000.0001)           User time:  6.99999999999993960E-002
(PID.TID 0000.0001)         System time:  9.99999999999999500E-003
(PID.TID 0000.0001)     Wall clock time:  8.11572074890136719E-002
(PID.TID 0000.0001)          No. starts:          10
(PID.TID 0000.0001)           No. stops:          10
(PID.TID 0000.0001)   Seconds in section "DO_WRITE_PICKUP     [FORWARD_STEP]":
(PID.TID 0000.0001)           User time:  1.99999999999995737E-002
(PID.TID 0000.0001)         System time:   0.0000000000000000
(PID.TID 0000.0001)     Wall clock time:  2.57418155670166016E-002
(PID.TID 0000.0001)          No. starts:          10
(PID.TID 0000.0001)           No. stops:          10
(PID.TID 0000.0001) // ======================================================
(PID.TID 0000.0001) // Tile <-> Tile communication statistics
(PID.TID 0000.0001) // ======================================================
(PID.TID 0000.0001) // o Tile number: 000001
(PID.TID 0000.0001) //         No. X exchanges =              0
(PID.TID 0000.0001) //            Max. X spins =              0
(PID.TID 0000.0001) //            Min. X spins =     1000000000
(PID.TID 0000.0001) //          Total. X spins =              0
(PID.TID 0000.0001) //            Avg. X spins =       0.00E+00
(PID.TID 0000.0001) //         No. Y exchanges =              0
(PID.TID 0000.0001) //            Max. Y spins =              0
(PID.TID 0000.0001) //            Min. Y spins =     1000000000
(PID.TID 0000.0001) //          Total. Y spins =              0
(PID.TID 0000.0001) //            Avg. Y spins =       0.00E+00
(PID.TID 0000.0001) // o Tile number: 000002
(PID.TID 0000.0001) //         No. X exchanges =              0
(PID.TID 0000.0001) //            Max. X spins =              0
(PID.TID 0000.0001) //            Min. X spins =     1000000000
(PID.TID 0000.0001) //          Total. X spins =              0
(PID.TID 0000.0001) //            Avg. X spins =       0.00E+00
(PID.TID 0000.0001) //         No. Y exchanges =              0
(PID.TID 0000.0001) //            Max. Y spins =              0
(PID.TID 0000.0001) //            Min. Y spins =     1000000000
(PID.TID 0000.0001) //          Total. Y spins =              0
(PID.TID 0000.0001) //            Avg. Y spins =       0.00E+00
(PID.TID 0000.0001) // o Tile number: 000003
(PID.TID 0000.0001) //         No. X exchanges =              0
(PID.TID 0000.0001) //            Max. X spins =              0
(PID.TID 0000.0001) //            Min. X spins =     1000000000
(PID.TID 0000.0001) //          Total. X spins =              0
(PID.TID 0000.0001) //            Avg. X spins =       0.00E+00
(PID.TID 0000.0001) //         No. Y exchanges =              0
(PID.TID 0000.0001) //            Max. Y spins =              0
(PID.TID 0000.0001) //            Min. Y spins =     1000000000
(PID.TID 0000.0001) //          Total. Y spins =              0
(PID.TID 0000.0001) //            Avg. Y spins =       0.00E+00
(PID.TID 0000.0001) // o Tile number: 000004
(PID.TID 0000.0001) //         No. X exchanges =              0
(PID.TID 0000.0001) //            Max. X spins =              0
(PID.TID 0000.0001) //            Min. X spins =     1000000000
(PID.TID 0000.0001) //          Total. X spins =              0
(PID.TID 0000.0001) //            Avg. X spins =       0.00E+00
(PID.TID 0000.0001) //         No. Y exchanges =              0
(PID.TID 0000.0001) //            Max. Y spins =              0
(PID.TID 0000.0001) //            Min. Y spins =     1000000000
(PID.TID 0000.0001) //          Total. Y spins =              0
(PID.TID 0000.0001) //            Avg. Y spins =       0.00E+00
(PID.TID 0000.0001) // o Tile number: 000005
(PID.TID 0000.0001) //         No. X exchanges =              0
(PID.TID 0000.0001) //            Max. X spins =              0
(PID.TID 0000.0001) //            Min. X spins =     1000000000
(PID.TID 0000.0001) //          Total. X spins =              0
(PID.TID 0000.0001) //            Avg. X spins =       0.00E+00
(PID.TID 0000.0001) //         No. Y exchanges =              0
(PID.TID 0000.0001) //            Max. Y spins =              0
(PID.TID 0000.0001) //            Min. Y spins =     1000000000
(PID.TID 0000.0001) //          Total. Y spins =              0
(PID.TID 0000.0001) //            Avg. Y spins =       0.00E+00
(PID.TID 0000.0001) // o Tile number: 000006
(PID.TID 0000.0001) //         No. X exchanges =              0
(PID.TID 0000.0001) //            Max. X spins =              0
(PID.TID 0000.0001) //            Min. X spins =     1000000000
(PID.TID 0000.0001) //          Total. X spins =              0
(PID.TID 0000.0001) //            Avg. X spins =       0.00E+00
(PID.TID 0000.0001) //         No. Y exchanges =              0
(PID.TID 0000.0001) //            Max. Y spins =              0
(PID.TID 0000.0001) //            Min. Y spins =     1000000000
(PID.TID 0000.0001) //          Total. Y spins =              0
(PID.TID 0000.0001) //            Avg. Y spins =       0.00E+00
(PID.TID 0000.0001) // o Thread number: 000001
(PID.TID 0000.0001) //            No. barriers =           6672
(PID.TID 0000.0001) //      Max. barrier spins =              1
(PID.TID 0000.0001) //      Min. barrier spins =              1
(PID.TID 0000.0001) //     Total barrier spins =           6672
(PID.TID 0000.0001) //      Avg. barrier spins =       1.00E+00
PROGRAM MAIN: Execution ended Normally
