(PID.TID 0000.0001) 
(PID.TID 0000.0001) // ======================================================
(PID.TID 0000.0001) //                      MITgcm UV
(PID.TID 0000.0001) //                      =========
(PID.TID 0000.0001) // ======================================================
(PID.TID 0000.0001) // execution environment starting up...
(PID.TID 0000.0001) 
(PID.TID 0000.0001) // MITgcmUV version:  checkpoint64w
(PID.TID 0000.0001) // Build user:        jmc
(PID.TID 0000.0001) // Build host:        baudelaire
(PID.TID 0000.0001) // Build date:        Sun May 11 21:38:34 EDT 2014
(PID.TID 0000.0001) 
(PID.TID 0000.0001) // =======================================================
(PID.TID 0000.0001) // Execution Environment parameter file "eedata"
(PID.TID 0000.0001) // =======================================================
(PID.TID 0000.0001) ># Example "eedata" file
(PID.TID 0000.0001) ># Lines beginning "#" are comments
(PID.TID 0000.0001) ># nTx - No. threads per process in X
(PID.TID 0000.0001) ># nTy - No. threads per process in Y
(PID.TID 0000.0001) > &EEPARMS
(PID.TID 0000.0001) > useCubedSphereExchange=.TRUE.,
(PID.TID 0000.0001) ># Activate one line below to support 2, 3 or 6 way multi-threading
(PID.TID 0000.0001) > nTx=1,
(PID.TID 0000.0001) >#nTx=2,
(PID.TID 0000.0001) >#nTx=3,
(PID.TID 0000.0001) >#nTx=6,
(PID.TID 0000.0001) > /
(PID.TID 0000.0001) ># Note: Some systems use & as the
(PID.TID 0000.0001) ># namelist terminator. Other systems
(PID.TID 0000.0001) ># use a / character (as shown here).
(PID.TID 0000.0001) 
(PID.TID 0000.0001) // =======================================================
(PID.TID 0000.0001) // Computational Grid Specification ( see files "SIZE.h" )
(PID.TID 0000.0001) //                                  ( and "eedata"       )
(PID.TID 0000.0001) // =======================================================
(PID.TID 0000.0001)      nPx =    1 ; /* No. processes in X */
(PID.TID 0000.0001)      nPy =    1 ; /* No. processes in Y */
(PID.TID 0000.0001)      nSx =    6 ; /* No. tiles in X per process */
(PID.TID 0000.0001)      nSy =    1 ; /* No. tiles in Y per process */
(PID.TID 0000.0001)      sNx =   32 ; /* Tile size in X */
(PID.TID 0000.0001)      sNy =   32 ; /* Tile size in Y */
(PID.TID 0000.0001)      OLx =    2 ; /* Tile overlap distance in X */
(PID.TID 0000.0001)      OLy =    2 ; /* Tile overlap distance in Y */
(PID.TID 0000.0001)      nTx =    1 ; /* No. threads in X per process */
(PID.TID 0000.0001)      nTy =    1 ; /* No. threads in Y per process */
(PID.TID 0000.0001)       Nr =    5 ; /* No. levels in the vertical   */
(PID.TID 0000.0001)       Nx =  192 ; /* Total domain size in X ( = nPx*nSx*sNx ) */
(PID.TID 0000.0001)       Ny =   32 ; /* Total domain size in Y ( = nPy*nSy*sNy ) */
(PID.TID 0000.0001)   nTiles =    6 ; /* Total no. tiles per process ( = nSx*nSy ) */
(PID.TID 0000.0001)   nProcs =    1 ; /* Total no. processes ( = nPx*nPy ) */
(PID.TID 0000.0001) nThreads =    1 ; /* Total no. threads per process ( = nTx*nTy ) */
(PID.TID 0000.0001) usingMPI =    F ; /* Flag used to control whether MPI is in use */
(PID.TID 0000.0001)                   /*  note: To execute a program with MPI calls */
(PID.TID 0000.0001)                   /*  it must be launched appropriately e.g     */
(PID.TID 0000.0001)                   /*  "mpirun -np 64 ......"                    */
(PID.TID 0000.0001) useCoupler=    F ;/* Flag used to control communications with   */
(PID.TID 0000.0001)                   /*  other model components, through a coupler */
(PID.TID 0000.0001) debugMode =    F ; /* print debug msg. (sequence of S/R calls)  */
(PID.TID 0000.0001) printMapIncludesZeros=    F ; /* print zeros in Std.Output maps */
(PID.TID 0000.0001) maxLengthPrt1D=   65 /* maxLength of 1D array printed to StdOut */
(PID.TID 0000.0001) 
(PID.TID 0000.0001) // ======================================================
(PID.TID 0000.0001) // Mapping of tiles to threads
(PID.TID 0000.0001) // ======================================================
(PID.TID 0000.0001) // -o- Thread   1, tiles (   1:   6,   1:   1)
(PID.TID 0000.0001) 
(PID.TID 0000.0001) W2_READPARMS: file data.exch2 not found
(PID.TID 0000.0001) => use W2_EXCH2 default: regular 6-facets Cube
(PID.TID 0000.0001) W2_useE2ioLayOut=    T ;/* T: use Exch2 glob IO map; F: use model default */
(PID.TID 0000.0001) W2_mapIO        =  -1 ; /* select option for Exch2 global-IO map */
(PID.TID 0000.0001) W2_printMsg     =  -1 ; /* select option for printing information */
(PID.TID 0000.0001) ===== Start setting W2 TOPOLOGY:
(PID.TID 0000.0001)  write to log-file: w2_tile_topology.0000.log
(PID.TID 0000.0001) =====       setting W2 TOPOLOGY: Done
(PID.TID 0000.0001) 
(PID.TID 0000.0001)  INI_PARMS: opening model parameter file "data"
(PID.TID 0000.0001)  OPEN_COPY_DATA_FILE: opening file data
(PID.TID 0000.0001) // =======================================================
(PID.TID 0000.0001) // Parameter file "data"
(PID.TID 0000.0001) // =======================================================
(PID.TID 0000.0001) ># ====================
(PID.TID 0000.0001) ># | Model parameters |
(PID.TID 0000.0001) ># ====================
(PID.TID 0000.0001) >#
(PID.TID 0000.0001) ># Continuous equation parameters
(PID.TID 0000.0001) > &PARM01
(PID.TID 0000.0001) > tRef=289.6, 298.1, 314.5, 335.8, 437.4,
(PID.TID 0000.0001) > sRef=5*0.,
(PID.TID 0000.0001) > no_slip_sides=.FALSE.,
(PID.TID 0000.0001) > no_slip_bottom=.FALSE.,
(PID.TID 0000.0001) > buoyancyRelation='ATMOSPHERIC',
(PID.TID 0000.0001) > eosType='IDEALG',
(PID.TID 0000.0001) > atm_Rq=0.6078E-3,
(PID.TID 0000.0001) > Integr_GeoPot=2,
(PID.TID 0000.0001) > selectFindRoSurf=1,
(PID.TID 0000.0001) > gravity=9.81,
(PID.TID 0000.0001) > rhoConstFresh=1000.,
(PID.TID 0000.0001) > implicitFreeSurface=.TRUE.,
(PID.TID 0000.0001) > exactConserv=.TRUE.,
(PID.TID 0000.0001) > select_rStar=2,
(PID.TID 0000.0001) > nonlinFreeSurf=4,
(PID.TID 0000.0001) > hFacInf=0.2,
(PID.TID 0000.0001) > hFacSup=2.0,
(PID.TID 0000.0001) > uniformLin_PhiSurf=.FALSE.,
(PID.TID 0000.0001) > hFacMin=0.2,
(PID.TID 0000.0001) > saltAdvScheme=3,
(PID.TID 0000.0001) > vectorInvariantMomentum=.TRUE.,
(PID.TID 0000.0001) > useJamartWetPoints=.TRUE.,
(PID.TID 0000.0001) > staggerTimeStep=.TRUE.,
(PID.TID 0000.0001) > readBinaryPrec=64,
(PID.TID 0000.0001) >#writeBinaryPrec=64,
(PID.TID 0000.0001) > useSingleCpuIO=.TRUE.
(PID.TID 0000.0001) > /
(PID.TID 0000.0001) >
(PID.TID 0000.0001) ># Elliptic solver parameters
(PID.TID 0000.0001) > &PARM02
(PID.TID 0000.0001) > cg2dMaxIters=200,
(PID.TID 0000.0001) >#cg2dTargetResidual=1.E-12,
(PID.TID 0000.0001) > cg2dTargetResWunit=1.E-17,
(PID.TID 0000.0001) > /
(PID.TID 0000.0001) >
(PID.TID 0000.0001) ># Time stepping parameters
(PID.TID 0000.0001) > &PARM03
(PID.TID 0000.0001) > nIter0=0,
(PID.TID 0000.0001) > nTimeSteps=10,
(PID.TID 0000.0001) ># 10yr:
(PID.TID 0000.0001) >#endTime=311040000.,
(PID.TID 0000.0001) > deltaT=450.0,
(PID.TID 0000.0001) > abEps=0.1,
(PID.TID 0000.0001) > forcing_In_AB=.FALSE.,
(PID.TID 0000.0001) > cAdjFreq=0.,
(PID.TID 0000.0001) > pChkptFreq=2592000.,
(PID.TID 0000.0001) > taveFreq=2592000.,
(PID.TID 0000.0001) > dumpFreq=2592000.,
(PID.TID 0000.0001) > monitorFreq=86400.,
(PID.TID 0000.0001) > monitorFreq=1.,
(PID.TID 0000.0001) > /
(PID.TID 0000.0001) >
(PID.TID 0000.0001) ># Gridding parameters
(PID.TID 0000.0001) > &PARM04
(PID.TID 0000.0001) > usingCurvilinearGrid=.TRUE.,
(PID.TID 0000.0001) > radius_fromHorizGrid=6370.E3,
(PID.TID 0000.0001) > delR=100.E2, 250.E2, 300.E2, 200.E2, 150.E2,
(PID.TID 0000.0001) > Ro_SeaLevel=1.E5,
(PID.TID 0000.0001) > /
(PID.TID 0000.0001) >
(PID.TID 0000.0001) ># Input datasets
(PID.TID 0000.0001) > &PARM05
(PID.TID 0000.0001) > topoFile='topo.cpl_FM.bin',
(PID.TID 0000.0001) > /
(PID.TID 0000.0001) 
(PID.TID 0000.0001)  INI_PARMS ; starts to read PARM01
(PID.TID 0000.0001)  INI_PARMS ; read PARM01 : OK
(PID.TID 0000.0001)  INI_PARMS ; starts to read PARM02
(PID.TID 0000.0001)  INI_PARMS ; read PARM02 : OK
(PID.TID 0000.0001)  INI_PARMS ; starts to read PARM03
(PID.TID 0000.0001)  INI_PARMS ; read PARM03 : OK
(PID.TID 0000.0001)  INI_PARMS ; starts to read PARM04
(PID.TID 0000.0001)  INI_PARMS ; read PARM04 : OK
(PID.TID 0000.0001)  INI_PARMS ; starts to read PARM05
(PID.TID 0000.0001)  INI_PARMS ; read PARM05 : OK
(PID.TID 0000.0001)  INI_PARMS: finished reading file "data"
(PID.TID 0000.0001)  PACKAGES_BOOT: opening data.pkg
(PID.TID 0000.0001)  OPEN_COPY_DATA_FILE: opening file data.pkg
(PID.TID 0000.0001) // =======================================================
(PID.TID 0000.0001) // Parameter file "data.pkg"
(PID.TID 0000.0001) // =======================================================
(PID.TID 0000.0001) ># Packages
(PID.TID 0000.0001) >#     useAIM  :: use Atmospheric Intermediate complexity Model
(PID.TID 0000.0001) >#     useLand :: use (simple) Land package to compute surf. BC over land
(PID.TID 0000.0001) >#   useThSIce :: use Therm. SeaIce package (+slab ocean)
(PID.TID 0000.0001) > &PACKAGES
(PID.TID 0000.0001) > useAIM=.TRUE.,
(PID.TID 0000.0001) > useLand=.TRUE.,
(PID.TID 0000.0001) > useThSIce=.TRUE.,
(PID.TID 0000.0001) > useSHAP_FILT=.TRUE.,
(PID.TID 0000.0001) > useDiagnostics=.TRUE.,
(PID.TID 0000.0001) ># useMNC=.TRUE.,
(PID.TID 0000.0001) > /
(PID.TID 0000.0001) 
(PID.TID 0000.0001)  PACKAGES_BOOT: finished reading data.pkg
(PID.TID 0000.0001)  PACKAGES_BOOT: On/Off package Summary
 --------  pkgs with a standard "usePKG" On/Off switch in "data.pkg":  --------
 pkg/shap_filt            compiled   and   used ( useSHAP_FILT             = T )
 pkg/thsice               compiled   and   used ( useThSIce                = T )
 pkg/land                 compiled   and   used ( useLand                  = T )
 pkg/aim_v23              compiled   and   used ( useAIM                   = T )
 pkg/diagnostics          compiled   and   used ( useDiagnostics           = T )
 pkg/mnc                  compiled but not used ( useMNC                   = F )
 -------- pkgs without standard "usePKG" On/Off switch in "data.pkg":  --------
 pkg/generic_advdiff      compiled   and   used ( useGAD                   = T )
 pkg/mom_common           compiled   and   used ( momStepping              = T )
 pkg/mom_vecinv           compiled   and   used ( +vectorInvariantMomentum = T )
 pkg/monitor              compiled   and   used ( monitorFreq > 0.         = T )
 pkg/timeave              compiled   and   used ( taveFreq > 0.            = T )
 pkg/debug                compiled but not used ( debugMode                = F )
 pkg/exch2                compiled   and   used
 pkg/rw                   compiled   and   used
 pkg/mdsio                compiled   and   used
 pkg/atm_common           compiled   ( used ? )
(PID.TID 0000.0001)  PACKAGES_BOOT: End of package Summary
(PID.TID 0000.0001) 
(PID.TID 0000.0001)  SHAP_FILT_READPARMS: opening data.shap
(PID.TID 0000.0001)  OPEN_COPY_DATA_FILE: opening file data.shap
(PID.TID 0000.0001) // =======================================================
(PID.TID 0000.0001) // Parameter file "data.shap"
(PID.TID 0000.0001) // =======================================================
(PID.TID 0000.0001) ># Shapiro Filter parameters
(PID.TID 0000.0001) > &SHAP_PARM01
(PID.TID 0000.0001) > shap_filt_uvStar=.FALSE.,
(PID.TID 0000.0001) > shap_filt_TrStagg=.TRUE.,
(PID.TID 0000.0001) > Shap_funct=2,
(PID.TID 0000.0001) > nShapT=4,
(PID.TID 0000.0001) > nShapUV=4,
(PID.TID 0000.0001) > nShapTrPhys=1,
(PID.TID 0000.0001) > nShapUVPhys=0,
(PID.TID 0000.0001) > Shap_TrLength=140000.,
(PID.TID 0000.0001) >#Shap_uvLength=140000.,
(PID.TID 0000.0001) > Shap_Trtau=5400.,
(PID.TID 0000.0001) > Shap_uvtau=1800.,
(PID.TID 0000.0001) >#Shap_diagFreq=2592000.,
(PID.TID 0000.0001) > /
(PID.TID 0000.0001) 
(PID.TID 0000.0001)  SHAP_FILT_READPARMS: finished reading data.shap
(PID.TID 0000.0001) Shap_funct =   /* select Shapiro filter function */
(PID.TID 0000.0001)                       2
(PID.TID 0000.0001)     ;
(PID.TID 0000.0001) nShapT =   /* power of Shapiro filter for Temperat */
(PID.TID 0000.0001)                       4
(PID.TID 0000.0001)     ;
(PID.TID 0000.0001) nShapS =   /* power of Shapiro filter for Salinity */
(PID.TID 0000.0001)                       4
(PID.TID 0000.0001)     ;
(PID.TID 0000.0001) nShapUV =   /* power of Shapiro filter for momentum */
(PID.TID 0000.0001)                       4
(PID.TID 0000.0001)     ;
(PID.TID 0000.0001) shap_filt_uvStar = /* apply filter before Press. Solver */
(PID.TID 0000.0001)                   F
(PID.TID 0000.0001)     ;
(PID.TID 0000.0001) shap_filt_TrStagg = /* filter T,S before calc PhiHyd (staggerTimeStep) */
(PID.TID 0000.0001)                   T
(PID.TID 0000.0001)     ;
(PID.TID 0000.0001) Shap_alwaysExchUV = /* always exch(U,V)    nShapUV times*/
(PID.TID 0000.0001)                   F
(PID.TID 0000.0001)     ;
(PID.TID 0000.0001) Shap_alwaysExchTr = /* always exch(Tracer) nShapTr times*/
(PID.TID 0000.0001)                   F
(PID.TID 0000.0001)     ;
(PID.TID 0000.0001) nShapTrPhys =   /* power of physical-space filter (Tracer) */
(PID.TID 0000.0001)                       1
(PID.TID 0000.0001)     ;
(PID.TID 0000.0001) nShapUVPhys =   /* power of physical-space filter (Momentum) */
(PID.TID 0000.0001)                       0
(PID.TID 0000.0001)     ;
(PID.TID 0000.0001) Shap_Trtau =   /* time scale of Shapiro filter (Tracer) */
(PID.TID 0000.0001)                 5.400000000000000E+03
(PID.TID 0000.0001)     ;
(PID.TID 0000.0001) Shap_TrLength =   /* Length scale of Shapiro filter (Tracer) */
(PID.TID 0000.0001)                 1.400000000000000E+05
(PID.TID 0000.0001)     ;
(PID.TID 0000.0001) Shap_uvtau =   /* time scale of Shapiro filter (Momentum) */
(PID.TID 0000.0001)                 1.800000000000000E+03
(PID.TID 0000.0001)     ;
(PID.TID 0000.0001) Shap_uvLength =   /* Length scale of Shapiro filter (Momentum) */
(PID.TID 0000.0001)                 0.000000000000000E+00
(PID.TID 0000.0001)     ;
(PID.TID 0000.0001) Shap_noSlip =  /* No-slip parameter (0=Free-slip ; 1=No-slip)*/
(PID.TID 0000.0001)                 0.000000000000000E+00
(PID.TID 0000.0001)     ;
(PID.TID 0000.0001) Shap_diagFreq =   /* Frequency^-1 for diagnostic output (s)*/
(PID.TID 0000.0001)                 0.000000000000000E+00
(PID.TID 0000.0001)     ;
(PID.TID 0000.0001)  THSICE_READPARMS: opening data.ice
(PID.TID 0000.0001)  OPEN_COPY_DATA_FILE: opening file data.ice
(PID.TID 0000.0001) // =======================================================
(PID.TID 0000.0001) // Parameter file "data.ice"
(PID.TID 0000.0001) // =======================================================
(PID.TID 0000.0001) > &THSICE_CONST
(PID.TID 0000.0001) > Tf0kel  = 273.15,
(PID.TID 0000.0001) > rhosw   = 1030.,
(PID.TID 0000.0001) >#- with LANL albedo:
(PID.TID 0000.0001) >#albWarmSnow= 0.75,
(PID.TID 0000.0001) > iceMaskMin = 0.01,
(PID.TID 0000.0001) > hThinIce   = 0.1,
(PID.TID 0000.0001) > hiMax      = 10.,
(PID.TID 0000.0001) > hsMax      = 10.,
(PID.TID 0000.0001) >#albIceMax  = 0.7,
(PID.TID 0000.0001) >#albIceMin  = 0.7,
(PID.TID 0000.0001) > /
(PID.TID 0000.0001) >
(PID.TID 0000.0001) > &THSICE_PARM01
(PID.TID 0000.0001) >#startIceModel=1,
(PID.TID 0000.0001) > stepFwd_oceMxL=.TRUE.,
(PID.TID 0000.0001) >#ocean_deltaT=3600.,
(PID.TID 0000.0001) > tauRelax_MxL=5184000.,
(PID.TID 0000.0001) >#thSIceAdvScheme=1,
(PID.TID 0000.0001) >#thSIce_diffK   =800.,
(PID.TID 0000.0001) > stressReduction=0.,
(PID.TID 0000.0001) >#thSIce_taveFreq=2592000.,
(PID.TID 0000.0001) > thSIce_diagFreq=5184000.,
(PID.TID 0000.0001) >#thSIce_monFreq=864000.,
(PID.TID 0000.0001) >#thSIce_diagFreq=0.,
(PID.TID 0000.0001) > /
(PID.TID 0000.0001) >
(PID.TID 0000.0001) 
(PID.TID 0000.0001)  THSICE_READPARMS: read THSICE_CONST
(PID.TID 0000.0001)  THSICE_READPARMS: read THSICE_PARM01
 ThSI:       rhos        =  3.3000000000000E+02
 ThSI:       rhoi        =  9.0000000000000E+02
 ThSI:       rhosw       =  1.0300000000000E+03
 ThSI:       rhofw       =  1.0000000000000E+03
 ThSI:       floodFac    =  3.9393939393939E-01
 ThSI:       cpIce       =  2.1060000000000E+03
 ThSI:       cpWater     =  3.9940000000000E+03
 ThSI:       kIce        =  2.0300000000000E+00
 ThSI:       kSnow       =  3.0000000000000E-01
 ThSI:       bMeltCoef   =  6.0000000000000E-03
 ThSI:       Lfresh      =  3.3400000000000E+05
 ThSI:       qsnow       =  3.3400000000000E+05
 ThSI:       albColdSnow =  8.5000000000000E-01
 ThSI:       albWarmSnow =  7.0000000000000E-01
 ThSI:       tempSnowAlb = -1.0000000000000E+01
 ThSI:       albOldSnow  =  5.5000000000000E-01
 ThSI:       hNewSnowAge =  2.0000000000000E-03
 ThSI:       snowAgTime  =  4.3200000000000E+06
 ThSI:       albIceMax   =  6.5000000000000E-01
 ThSI:       albIceMin   =  2.0000000000000E-01
 ThSI:       hAlbIce     =  5.0000000000000E-01
 ThSI:       hAlbSnow    =  3.0000000000000E-01
 ThSI:       i0swFrac    =  3.0000000000000E-01
 ThSI:       ksolar      =  1.5000000000000E+00
 ThSI:       dhSnowLin   =  0.0000000000000E+00
 ThSI:       saltIce     =  4.0000000000000E+00
 ThSI:       S_winton    =  1.0000000000000E+00
 ThSI:       mu_Tf       =  5.4000000000000E-02
 ThSI:       Tf0kel      =  2.7315000000000E+02
 ThSI:       Tmlt1       = -5.4000000000000E-02
 ThSI:       Terrmax     =  5.0000000000000E-01
 ThSI:       nitMaxTsf   =        20
 ThSI:       hIceMin     =  1.0000000000000E-02
 ThSI:       hiMax       =  1.0000000000000E+01
 ThSI:       hsMax       =  1.0000000000000E+01
 ThSI:       iceMaskMax  =  1.0000000000000E+00
 ThSI:       iceMaskMin  =  1.0000000000000E-02
 ThSI:       fracEnMelt  =  4.0000000000000E-01
 ThSI:       fracEnFreez =  0.0000000000000E+00
 ThSI:       hThinIce    =  1.0000000000000E-01
 ThSI:       hThickIce   =  2.5000000000000E+00
 ThSI:       hNewIceMax  =  1.0000000000000E+01
 ThSI: stressReduction   =  0.0000000000000E+00
 ThSI: thSIce_skipThermo =         F
 ThSI: thSIceAdvScheme   =         0
 ThSI: thSIceBalanceAtmFW=         0
 ThSI: thSIce_diffK      =  0.0000000000000E+00
 ThSI: thSIce_deltaT     =  4.5000000000000E+02
 ThSI: ocean_deltaT      =  4.5000000000000E+02
 ThSI: stepFwd_oceMxL    =         T
 ThSI: tauRelax_MxL      =  5.1840000000000E+06
 ThSI: tauRelax_MxL_salt =  5.1840000000000E+06
 ThSI: hMxL_default      =  5.0000000000000E+01
 ThSI: sMxL_default      =  3.5000000000000E+01
 ThSI: vMxL_default      =  5.0000000000000E-02
 ThSI: thSIce_taveFreq   =  2.5920000000000E+06
 ThSI: thSIce_diagFreq   =  5.1840000000000E+06
 ThSI: thSIce_monFreq    =  1.0000000000000E+00
 ThSI: startIceModel     =         0
(PID.TID 0000.0001)  DIAGNOSTICS_READPARMS: opening data.diagnostics
(PID.TID 0000.0001)  OPEN_COPY_DATA_FILE: opening file data.diagnostics
(PID.TID 0000.0001) // =======================================================
(PID.TID 0000.0001) // Parameter file "data.diagnostics"
(PID.TID 0000.0001) // =======================================================
(PID.TID 0000.0001) ># Diagnostic Package Choices
(PID.TID 0000.0001) >#--------------------
(PID.TID 0000.0001) >#  dumpAtLast (logical): always write output at the end of simulation (default=F)
(PID.TID 0000.0001) >#  diag_mnc   (logical): write to NetCDF files (default=useMNC)
(PID.TID 0000.0001) >#--for each output-stream:
(PID.TID 0000.0001) >#  fileName(n) : prefix of the output file name (max 80c long) for outp.stream n
(PID.TID 0000.0001) >#  frequency(n):< 0 : write snap-shot output every |frequency| seconds
(PID.TID 0000.0001) >#               > 0 : write time-average output every frequency seconds
(PID.TID 0000.0001) >#  timePhase(n)     : write at time = timePhase + multiple of |frequency|
(PID.TID 0000.0001) >#    averagingFreq  : frequency (in s) for periodic averaging interval
(PID.TID 0000.0001) >#    averagingPhase : phase     (in s) for periodic averaging interval
(PID.TID 0000.0001) >#    repeatCycle    : number of averaging intervals in 1 cycle
(PID.TID 0000.0001) >#  levels(:,n) : list of levels to write to file (Notes: declared as REAL)
(PID.TID 0000.0001) >#                when this entry is missing, select all common levels of this list
(PID.TID 0000.0001) >#  fields(:,n) : list of selected diagnostics fields (8.c) in outp.stream n
(PID.TID 0000.0001) >#                (see "available_diagnostics.log" file for the full list of diags)
(PID.TID 0000.0001) >#  missing_value(n) : missing value for real-type fields in output file "n"
(PID.TID 0000.0001) >#  fileFlags(n)     : specific code (8c string) for output file "n"
(PID.TID 0000.0001) >#--------------------
(PID.TID 0000.0001) > &DIAGNOSTICS_LIST
(PID.TID 0000.0001) >  fields(1:3,1)  = 'ETAN    ','ETANSQ  ','DETADT2 ',
(PID.TID 0000.0001) >   levels(1,1) = 1.,
(PID.TID 0000.0001) >   fileName(1) = 'surfDiag',
(PID.TID 0000.0001) >  frequency(1) = 4500.,
(PID.TID 0000.0001) >  fields(1:20,2) = 'UVEL    ','VVEL    ','WVEL    ','THETA   ','SALT    ',
(PID.TID 0000.0001) >                   'UVELSQ  ','VVELSQ  ','WVELSQ  ','THETASQ ',
(PID.TID 0000.0001) >                   'UV_VEL_Z','PHIHYD  ','PHIHYDSQ',
(PID.TID 0000.0001) >                   'UVELMASS','VVELMASS',
(PID.TID 0000.0001) >                   'UTHMASS ','VTHMASS ','WVELTH  ',
(PID.TID 0000.0001) >                   'USLTMASS','VSLTMASS','WVELSLT ',
(PID.TID 0000.0001) >   levels(1:5,2) = 1.,2.,3.,4.,5.,
(PID.TID 0000.0001) >   fileName(2) = 'dynDiag',
(PID.TID 0000.0001) >  frequency(2) = 4500.,
(PID.TID 0000.0001) >  fields(1:20,3) = 'UFLUX   ','VFLUX   ',
(PID.TID 0000.0001) >                   'TSR     ','OLR     ','RADSWG  ','RADLWG  ',
(PID.TID 0000.0001) >                   'HFLUX   ','EVAP    ','PRECON  ','PRECLS  ',
(PID.TID 0000.0001) >                   'CLDFRC  ','CLDPRS  ','CLDMAS  ',
(PID.TID 0000.0001) >                   'DRAG    ','WINDS   ','TS      ','QS      ',
(PID.TID 0000.0001) >                   'ENPREC  ','ALBVISDF','DTSIMPL ',
(PID.TID 0000.0001) >#                  'DWNLWG  ',
(PID.TID 0000.0001) >#                  'TSRCLR  ','OLRCLR  ','SWGCLR  ','LWGCLR  ',
(PID.TID 0000.0001) >   fileName(3) = 'aimDiag',
(PID.TID 0000.0001) >  frequency(3) = 4500.,
(PID.TID 0000.0001) >  fields(1:9,4) =  'RELHUM  ','DIABT   ','DIABQ   ',
(PID.TID 0000.0001) >                   'RADSW   ','RADLW   ','DTCONV  ','DTLS    ',
(PID.TID 0000.0001) >                   'DQCONV  ','DQLS    ',
(PID.TID 0000.0001) >#                  'SWCLR   ', 'LWCLR   ',
(PID.TID 0000.0001) >   fileName(4) = 'aimDDT',
(PID.TID 0000.0001) >  frequency(4) = 4500.,
(PID.TID 0000.0001) >  fields(1:14,5) = 'SI_Fract','SI_Thick','SI_SnowH',
(PID.TID 0000.0001) >                   'SI_Tsrf ','SI_Tice1','SI_Tice2',
(PID.TID 0000.0001) >                   'SI_Qice1','SI_Qice2','SIsnwAge',
(PID.TID 0000.0001) >                   'SIsnwPrc','SIalbedo',
(PID.TID 0000.0001) >                   'SIflx2oc','SIfrw2oc','SIsaltFx',
(PID.TID 0000.0001) >#                  'SIflxAtm','SIfrwAtm',
(PID.TID 0000.0001) >#                  'SItOcMxL','SIsOcMxL',
(PID.TID 0000.0001) >   fileName(5) = 'thSIceDiag',
(PID.TID 0000.0001) >  frequency(5) = 4500.,
(PID.TID 0000.0001) > /
(PID.TID 0000.0001) >
(PID.TID 0000.0001) >#--------------------
(PID.TID 0000.0001) ># Parameter for Diagnostics of per level statistics:
(PID.TID 0000.0001) >#--------------------
(PID.TID 0000.0001) >#  diagSt_mnc (logical): write stat-diags to NetCDF files (default=diag_mnc)
(PID.TID 0000.0001) >#  diagSt_regMaskFile : file containing the region-mask to read-in
(PID.TID 0000.0001) >#  nSetRegMskFile   : number of region-mask sets within the region-mask file
(PID.TID 0000.0001) >#  set_regMask(i)   : region-mask set-index that identifies the region "i"
(PID.TID 0000.0001) >#  val_regMask(i)   : region "i" identifier value in the region mask
(PID.TID 0000.0001) >#--for each output-stream:
(PID.TID 0000.0001) >#  stat_fName(n) : prefix of the output file name (max 80c long) for outp.stream n
(PID.TID 0000.0001) >#  stat_freq(n):< 0 : write snap-shot output every |stat_freq| seconds
(PID.TID 0000.0001) >#               > 0 : write time-average output every stat_freq seconds
(PID.TID 0000.0001) >#  stat_phase(n)    : write at time = stat_phase + multiple of |stat_freq|
(PID.TID 0000.0001) >#  stat_region(:,n) : list of "regions" (default: 1 region only=global)
(PID.TID 0000.0001) >#  stat_fields(:,n) : list of selected diagnostics fields (8.c) in outp.stream n
(PID.TID 0000.0001) >#                (see "available_diagnostics.log" file for the full list of diags)
(PID.TID 0000.0001) >#--------------------
(PID.TID 0000.0001) > &DIAG_STATIS_PARMS
(PID.TID 0000.0001) >#- regional mask: 3 lat. band: 1 : y <= -24 ; 2 : -24<y<24 ; 3 : 24 <= y
(PID.TID 0000.0001) > diagSt_regMaskFile='regMask_lat24.bin',
(PID.TID 0000.0001) > nSetRegMskFile = 1,
(PID.TID 0000.0001) > set_regMask(1:3) = 1,  1,  1,
(PID.TID 0000.0001) > val_regMask(1:3) = 1., 2., 3.,
(PID.TID 0000.0001) >#- an example just to check the agreement with MONITOR output:
(PID.TID 0000.0001) > stat_fields(1:5,1)  = 'ETAN    ','UVEL    ','VVEL    ','WVEL    ', 'THETA   ',
(PID.TID 0000.0001) >  stat_fName(1) = 'dynStDiag',
(PID.TID 0000.0001) >   stat_freq(1) = -3600.,
(PID.TID 0000.0001) >  stat_phase(1) = 0.,
(PID.TID 0000.0001) > stat_fields(1:4,4)  = 'LdSnowH ', 'GrdSurfT', 'GrdTemp ', 'GrdWater',
(PID.TID 0000.0001) >  stat_region(1:3,4) = 1, 2, 3,
(PID.TID 0000.0001) >  stat_fName(4) = 'landStDiag',
(PID.TID 0000.0001) >   stat_freq(4) = -3600.,
(PID.TID 0000.0001) >  stat_phase(4) = 0.,
(PID.TID 0000.0001) > stat_fields(1:12,5) = 'SI_Fract', 'SI_Thick', 'SI_SnowH',
(PID.TID 0000.0001) >                   'SI_Tsrf ', 'SI_Tice1', 'SI_Tice2',
(PID.TID 0000.0001) >#                  'SI_Qice1', 'SI_Qice2',
(PID.TID 0000.0001) >                   'SIsnwPrc', 'SIalbedo', 'SIsnwAge',
(PID.TID 0000.0001) >                   'SIflx2oc', 'SIfrw2oc', 'SIsaltFx',
(PID.TID 0000.0001) >  stat_region(1:3,5) = 1, 3, 0,
(PID.TID 0000.0001) >  stat_fName(5) = 'thSIceStDiag',
(PID.TID 0000.0001) >   stat_freq(5) = -3600.,
(PID.TID 0000.0001) >  stat_phase(5) = 0.,
(PID.TID 0000.0001) > /
(PID.TID 0000.0001) >
(PID.TID 0000.0001) 
(PID.TID 0000.0001) S/R DIAGNOSTICS_READPARMS, read namelist "diagnostics_list": start
(PID.TID 0000.0001) S/R DIAGNOSTICS_READPARMS, read namelist "diagnostics_list": OK
(PID.TID 0000.0001) S/R DIAGNOSTICS_READPARMS, read namelist "DIAG_STATIS_PARMS": start
(PID.TID 0000.0001) S/R DIAGNOSTICS_READPARMS, read namelist "DIAG_STATIS_PARMS": OK
(PID.TID 0000.0001)  DIAGNOSTICS_READPARMS: global parameter summary:
(PID.TID 0000.0001)  dumpAtLast = /* always write time-ave diags at the end */
(PID.TID 0000.0001)                   F
(PID.TID 0000.0001)     ;
(PID.TID 0000.0001)  diag_mnc =   /* write NetCDF output files */
(PID.TID 0000.0001)                   F
(PID.TID 0000.0001)     ;
(PID.TID 0000.0001)  useMissingValue = /* put MissingValue where mask = 0 */
(PID.TID 0000.0001)                   F
(PID.TID 0000.0001)     ;
(PID.TID 0000.0001)  diagCG_maxIters = /* max number of iters in diag_cg2d */
(PID.TID 0000.0001)                     200
(PID.TID 0000.0001)     ;
(PID.TID 0000.0001)  diagCG_resTarget = /* residual target for diag_cg2d */
(PID.TID 0000.0001)                 1.000000000000000E-07
(PID.TID 0000.0001)     ;
(PID.TID 0000.0001) -----------------------------------------------------
(PID.TID 0000.0001)  DIAGNOSTICS_READPARMS: active diagnostics summary:
(PID.TID 0000.0001) -----------------------------------------------------
(PID.TID 0000.0001) Creating Output Stream: surfDiag
(PID.TID 0000.0001) Output Frequency:       4500.000000 ; Phase:           0.000000
(PID.TID 0000.0001)  Averaging Freq.:       4500.000000 , Phase:           0.000000 , Cycle:   1
(PID.TID 0000.0001)  missing value: -9.990000000000E+02
(PID.TID 0000.0001)  Levels:       1.
(PID.TID 0000.0001)  Fields:    ETAN     ETANSQ   DETADT2
(PID.TID 0000.0001) Creating Output Stream: dynDiag
(PID.TID 0000.0001) Output Frequency:       4500.000000 ; Phase:           0.000000
(PID.TID 0000.0001)  Averaging Freq.:       4500.000000 , Phase:           0.000000 , Cycle:   1
(PID.TID 0000.0001)  missing value: -9.990000000000E+02
(PID.TID 0000.0001)  Levels:       1.   2.   3.   4.   5.
(PID.TID 0000.0001)  Fields:    UVEL     VVEL     WVEL     THETA    SALT     UVELSQ   VVELSQ   WVELSQ   THETASQ  UV_VEL_Z
(PID.TID 0000.0001)  Fields:    PHIHYD   PHIHYDSQ UVELMASS VVELMASS UTHMASS  VTHMASS  WVELTH   USLTMASS VSLTMASS WVELSLT
(PID.TID 0000.0001) Creating Output Stream: aimDiag
(PID.TID 0000.0001) Output Frequency:       4500.000000 ; Phase:           0.000000
(PID.TID 0000.0001)  Averaging Freq.:       4500.000000 , Phase:           0.000000 , Cycle:   1
(PID.TID 0000.0001)  missing value: -9.990000000000E+02
(PID.TID 0000.0001)  Levels:    will be set later
(PID.TID 0000.0001)  Fields:    UFLUX    VFLUX    TSR      OLR      RADSWG   RADLWG   HFLUX    EVAP     PRECON   PRECLS
(PID.TID 0000.0001)  Fields:    CLDFRC   CLDPRS   CLDMAS   DRAG     WINDS    TS       QS       ENPREC   ALBVISDF DTSIMPL
(PID.TID 0000.0001) Creating Output Stream: aimDDT
(PID.TID 0000.0001) Output Frequency:       4500.000000 ; Phase:           0.000000
(PID.TID 0000.0001)  Averaging Freq.:       4500.000000 , Phase:           0.000000 , Cycle:   1
(PID.TID 0000.0001)  missing value: -9.990000000000E+02
(PID.TID 0000.0001)  Levels:    will be set later
(PID.TID 0000.0001)  Fields:    RELHUM   DIABT    DIABQ    RADSW    RADLW    DTCONV   DTLS     DQCONV   DQLS
(PID.TID 0000.0001) Creating Output Stream: thSIceDiag
(PID.TID 0000.0001) Output Frequency:       4500.000000 ; Phase:           0.000000
(PID.TID 0000.0001)  Averaging Freq.:       4500.000000 , Phase:           0.000000 , Cycle:   1
(PID.TID 0000.0001)  missing value: -9.990000000000E+02
(PID.TID 0000.0001)  Levels:    will be set later
(PID.TID 0000.0001)  Fields:    SI_Fract SI_Thick SI_SnowH SI_Tsrf  SI_Tice1 SI_Tice2 SI_Qice1 SI_Qice2 SIsnwAge SIsnwPrc
(PID.TID 0000.0001)  Fields:    SIalbedo SIflx2oc SIfrw2oc SIsaltFx
(PID.TID 0000.0001) -----------------------------------------------------
(PID.TID 0000.0001)  DIAGNOSTICS_READPARMS: statistics diags. summary:
(PID.TID 0000.0001) Creating Stats. Output Stream: dynStDiag
(PID.TID 0000.0001) Output Frequency:      -3600.000000 ; Phase:           0.000000
(PID.TID 0000.0001)  Regions:   0
(PID.TID 0000.0001)  Fields:    ETAN     UVEL     VVEL     WVEL     THETA
(PID.TID 0000.0001) Creating Stats. Output Stream: landStDiag
(PID.TID 0000.0001) Output Frequency:      -3600.000000 ; Phase:           0.000000
(PID.TID 0000.0001)  Regions:   1  2  3
(PID.TID 0000.0001)  Fields:    LdSnowH  GrdSurfT GrdTemp  GrdWater
(PID.TID 0000.0001) Creating Stats. Output Stream: thSIceStDiag
(PID.TID 0000.0001) Output Frequency:      -3600.000000 ; Phase:           0.000000
(PID.TID 0000.0001)  Regions:   0  1  3
(PID.TID 0000.0001)  Fields:    SI_Fract SI_Thick SI_SnowH SI_Tsrf  SI_Tice1 SI_Tice2 SIsnwPrc SIalbedo SIsnwAge SIflx2oc
(PID.TID 0000.0001)  Fields:    SIfrw2oc SIsaltFx
(PID.TID 0000.0001) -----------------------------------------------------
(PID.TID 0000.0001) 
(PID.TID 0000.0001) SET_PARMS: done
(PID.TID 0000.0001) Enter INI_VERTICAL_GRID: setInterFDr=    T ; setCenterDr=    F
(PID.TID 0000.0001) tile:   1 ; Read from file tile001.mitgrid
(PID.TID 0000.0001)   => xC yC dxF dyF rA xG yG dxV dyU rAz dxC dyC rAw rAs dxG dyG
(PID.TID 0000.0001) tile:   2 ; Read from file tile002.mitgrid
(PID.TID 0000.0001)   => xC yC dxF dyF rA xG yG dxV dyU rAz dxC dyC rAw rAs dxG dyG
(PID.TID 0000.0001) tile:   3 ; Read from file tile003.mitgrid
(PID.TID 0000.0001)   => xC yC dxF dyF rA xG yG dxV dyU rAz dxC dyC rAw rAs dxG dyG
(PID.TID 0000.0001) tile:   4 ; Read from file tile004.mitgrid
(PID.TID 0000.0001)   => xC yC dxF dyF rA xG yG dxV dyU rAz dxC dyC rAw rAs dxG dyG
(PID.TID 0000.0001) tile:   5 ; Read from file tile005.mitgrid
(PID.TID 0000.0001)   => xC yC dxF dyF rA xG yG dxV dyU rAz dxC dyC rAw rAs dxG dyG
(PID.TID 0000.0001) tile:   6 ; Read from file tile006.mitgrid
(PID.TID 0000.0001)   => xC yC dxF dyF rA xG yG dxV dyU rAz dxC dyC rAw rAs dxG dyG
(PID.TID 0000.0001) %MON XC_max                       =   1.7854351589505E+02
(PID.TID 0000.0001) %MON XC_min                       =  -1.7854351589505E+02
(PID.TID 0000.0001) %MON XC_mean                      =  -4.6999441375798E-15
(PID.TID 0000.0001) %MON XC_sd                        =   1.0355545336287E+02
(PID.TID 0000.0001) %MON XG_max                       =   1.8000000000000E+02
(PID.TID 0000.0001) %MON XG_min                       =  -1.7708797161002E+02
(PID.TID 0000.0001) %MON XG_mean                      =   1.8603515625000E+00
(PID.TID 0000.0001) %MON XG_sd                        =   1.0357130300504E+02
(PID.TID 0000.0001) %MON DXC_max                      =   3.2375185836900E+05
(PID.TID 0000.0001) %MON DXC_min                      =   1.1142031410131E+05
(PID.TID 0000.0001) %MON DXC_mean                     =   2.8605689051214E+05
(PID.TID 0000.0001) %MON DXC_sd                       =   3.4042087138252E+04
(PID.TID 0000.0001) %MON DXF_max                      =   3.2369947500827E+05
(PID.TID 0000.0001) %MON DXF_min                      =   1.2020820513318E+05
(PID.TID 0000.0001) %MON DXF_mean                     =   2.8605437324820E+05
(PID.TID 0000.0001) %MON DXF_sd                       =   3.4050524252539E+04
(PID.TID 0000.0001) %MON DXG_max                      =   3.2375195872773E+05
(PID.TID 0000.0001) %MON DXG_min                      =   1.0098378008791E+05
(PID.TID 0000.0001) %MON DXG_mean                     =   2.8603818508931E+05
(PID.TID 0000.0001) %MON DXG_sd                       =   3.4140406908005E+04
(PID.TID 0000.0001) %MON DXV_max                      =   3.2380418162750E+05
(PID.TID 0000.0001) %MON DXV_min                      =   8.0152299824136E+04
(PID.TID 0000.0001) %MON DXV_mean                     =   2.8603970633619E+05
(PID.TID 0000.0001) %MON DXV_sd                       =   3.4145142117723E+04
(PID.TID 0000.0001) %MON YC_max                       =   8.7940663871962E+01
(PID.TID 0000.0001) %MON YC_min                       =  -8.7940663871962E+01
(PID.TID 0000.0001) %MON YC_mean                      =   0.0000000000000E+00
(PID.TID 0000.0001) %MON YC_sd                        =   3.8676242969072E+01
(PID.TID 0000.0001) %MON YG_max                       =   9.0000000000000E+01
(PID.TID 0000.0001) %MON YG_min                       =  -9.0000000000000E+01
(PID.TID 0000.0001) %MON YG_mean                      =  -1.1842378929335E-15
(PID.TID 0000.0001) %MON YG_sd                        =   3.8676895860710E+01
(PID.TID 0000.0001) %MON DYC_max                      =   3.2375185836900E+05
(PID.TID 0000.0001) %MON DYC_min                      =   1.1142031410131E+05
(PID.TID 0000.0001) %MON DYC_mean                     =   2.8605689051214E+05
(PID.TID 0000.0001) %MON DYC_sd                       =   3.4042087138252E+04
(PID.TID 0000.0001) %MON DYF_max                      =   3.2369947500827E+05
(PID.TID 0000.0001) %MON DYF_min                      =   1.2020820513318E+05
(PID.TID 0000.0001) %MON DYF_mean                     =   2.8605437324820E+05
(PID.TID 0000.0001) %MON DYF_sd                       =   3.4050524252539E+04
(PID.TID 0000.0001) %MON DYG_max                      =   3.2375195872773E+05
(PID.TID 0000.0001) %MON DYG_min                      =   1.0098378008791E+05
(PID.TID 0000.0001) %MON DYG_mean                     =   2.8603818508931E+05
(PID.TID 0000.0001) %MON DYG_sd                       =   3.4140406908005E+04
(PID.TID 0000.0001) %MON DYU_max                      =   3.2380418162750E+05
(PID.TID 0000.0001) %MON DYU_min                      =   8.0152299824136E+04
(PID.TID 0000.0001) %MON DYU_mean                     =   2.8603970633619E+05
(PID.TID 0000.0001) %MON DYU_sd                       =   3.4145142117723E+04
(PID.TID 0000.0001) %MON RA_max                       =   1.0479260248419E+11
(PID.TID 0000.0001) %MON RA_min                       =   1.4019007022556E+10
(PID.TID 0000.0001) %MON RA_mean                      =   8.2992246709265E+10
(PID.TID 0000.0001) %MON RA_sd                        =   1.7509089299457E+10
(PID.TID 0000.0001) %MON RAW_max                      =   1.0480965274559E+11
(PID.TID 0000.0001) %MON RAW_min                      =   1.2166903467143E+10
(PID.TID 0000.0001) %MON RAW_mean                     =   8.2992246709235E+10
(PID.TID 0000.0001) %MON RAW_sd                       =   1.7481917919656E+10
(PID.TID 0000.0001) %MON RAS_max                      =   1.0480965274559E+11
(PID.TID 0000.0001) %MON RAS_min                      =   1.2166903467143E+10
(PID.TID 0000.0001) %MON RAS_mean                     =   8.2992246709235E+10
(PID.TID 0000.0001) %MON RAS_sd                       =   1.7481917919656E+10
(PID.TID 0000.0001) %MON RAZ_max                      =   1.0484349334619E+11
(PID.TID 0000.0001) %MON RAZ_min                      =   8.8317900612505E+09
(PID.TID 0000.0001) %MON RAZ_mean                     =   8.2992246709235E+10
(PID.TID 0000.0001) %MON RAZ_sd                       =   1.7482297311044E+10
(PID.TID 0000.0001) %MON AngleCS_max                  =   9.9999994756719E-01
(PID.TID 0000.0001) %MON AngleCS_min                  =  -9.9968286884824E-01
(PID.TID 0000.0001) %MON AngleCS_mean                 =   3.3078922539000E-01
(PID.TID 0000.0001) %MON AngleCS_sd                   =   6.2496278958502E-01
(PID.TID 0000.0001) %MON AngleSN_max                  =   9.9968286884824E-01
(PID.TID 0000.0001) %MON AngleSN_min                  =  -9.9999994756719E-01
(PID.TID 0000.0001) %MON AngleSN_mean                 =  -3.3078922539000E-01
(PID.TID 0000.0001) %MON AngleSN_sd                   =   6.2496278958502E-01
(PID.TID 0000.0001) 
(PID.TID 0000.0001) SET_REF_STATE: PhiRef/g [m] at level Center (integer)
(PID.TID 0000.0001)                      and at level Interface (half-int.) :
(PID.TID 0000.0001)  K=  0.5  ;  r=       100000.0  ;  phiRef/g=        0.000
(PID.TID 0000.0001)  K=  1.0  ;  r=        95000.0  ;  phiRef/g=      431.199
(PID.TID 0000.0001)  K=  1.5  ;  r=        90000.0  ;  phiRef/g=     1256.487
(PID.TID 0000.0001)  K=  2.0  ;  r=        77500.0  ;  phiRef/g=     2081.775
(PID.TID 0000.0001)  K=  2.5  ;  r=        65000.0  ;  phiRef/g=     3703.426
(PID.TID 0000.0001)  K=  3.0  ;  r=        50000.0  ;  phiRef/g=     5325.077
(PID.TID 0000.0001)  K=  3.5  ;  r=        35000.0  ;  phiRef/g=     7509.251
(PID.TID 0000.0001)  K=  4.0  ;  r=        25000.0  ;  phiRef/g=     9693.426
(PID.TID 0000.0001)  K=  4.5  ;  r=        15000.0  ;  phiRef/g=    12596.158
(PID.TID 0000.0001)  K=  5.0  ;  r=         7500.0  ;  phiRef/g=    15498.890
(PID.TID 0000.0001)  K=  5.5  ;  r=            0.0  ;  phiRef/g=    29638.981
(PID.TID 0000.0001)  MDS_READ_FIELD: opening global file: topo.cpl_FM.bin
(PID.TID 0000.0001) // =======================================================
(PID.TID 0000.0001) // Field Model R_low (ini_masks_etc)
(PID.TID 0000.0001) // CMIN =          1.000000000000000E+32
(PID.TID 0000.0001) // CMAX =         -1.000000000000000E+32
(PID.TID 0000.0001) // CINT =          0.000000000000000E+00
(PID.TID 0000.0001) // SYMBOLS (CMIN->CMAX): -abcdefghijklmnopqrstuvwxyz+
(PID.TID 0000.0001) //                  0.0: .
(PID.TID 0000.0001) // RANGE I (Lo:Hi:Step):(    -1:   194:     1)
(PID.TID 0000.0001) // RANGE J (Lo:Hi:Step):(    34:    -1:    -1)
(PID.TID 0000.0001) // RANGE K (Lo:Hi:Step):(   1:   1:   1)
(PID.TID 0000.0001) // =======================================================
(PID.TID 0000.0001) // =======================================================
(PID.TID 0000.0001) // END OF FIELD                                          =
(PID.TID 0000.0001) // =======================================================
(PID.TID 0000.0001) 
(PID.TID 0000.0001) // =======================================================
(PID.TID 0000.0001) // Field Model Ro_surf (ini_masks_etc)
(PID.TID 0000.0001) // CMIN =          4.905667583685931E+04
(PID.TID 0000.0001) // CMAX =          1.000000000000000E+05
(PID.TID 0000.0001) // CINT =          1.886789783820026E+03
(PID.TID 0000.0001) // SYMBOLS (CMIN->CMAX): -abcdefghijklmnopqrstuvwxyz+
(PID.TID 0000.0001) //                  0.0: .
(PID.TID 0000.0001) // RANGE I (Lo:Hi:Step):(    -1:   194:     1)
(PID.TID 0000.0001) // RANGE J (Lo:Hi:Step):(    34:    -1:    -1)
(PID.TID 0000.0001) // RANGE K (Lo:Hi:Step):(   1:   1:   1)
(PID.TID 0000.0001) // =======================================================
(PID.TID 0000.0001) K =   1
(PID.TID 0000.0001) //                I=8       I=18      I=28      I=34      I=44      I=54      I=64      I=70      I=80      I=90      I=96      I=106     I=116     I=126     I=132     I=142     I=152     I=162     I=168     I=178     I=188
(PID.TID 0000.0001) // |--J--|101234567|901234567|901234567|901234123|567890123|567890123|567890123|563456789|123456789|123456789|123456785|789012345|789012345|789012345|789078901|345678901|345678901|345678901|901234567|901234567|901234567|901234
(PID.TID 0000.0001) //     34 ++++++++++++++++++zxwwwwwy++++nmnounnounny+zzzzzxxwwrnmmmqsuvvxxw+++++++++++++++++++++xxyzyxwtmlnnoy+++++++++++++++++++++++++++++++++++++++++++++++++++++++++++++++yxxwwxy++++++++++++++++++++++++++++++++++++++++++++++
(PID.TID 0000.0001) //     33 ++++++++++++++++++wttvwww++ywqstuuuouuuooy+yyzzyxwwqoomlmqtvutwyy++++++++++++++++++++xxxyyyxwunmnopx+++++++++++++++++++++++++++++++++++++++++++++++++++++++++++++++zyxwwwwy+++++++++++++++++++++++++++++++++++++++++++++
(PID.TID 0000.0001) //     32 ++++++++++++++++++wy+y+ww+xsrtwxyxvoyxvonrywwzywommlmpppqtttsuy++yy++yyy++++++++++++yxxyyxxxxvqmnpqw+++++++++++++++++++++++++++++++++++++++++++++++++++++++++++++++zyxwwwww+++++++++++++++++++++++++++++++++++++++++++++
(PID.TID 0000.0001) //     31 ++++++++++++++++wv++++++y+yxywxxyywqyywqnotsswwphglqttrnnqssswz++++++++++++++++++++zxxxyyxxyxwuport++++++++++++++++++++++++++++++++++++++++++++++++++++++++++++++++zyyxwwwww++++++++++++++++++++++++++++++++++++++++++++
(PID.TID 0000.0001) //     30 ++++++++++++++++w+++++++++++++wwxzyuxzyumnstsspmfdhmlhgfekosuxz+++++++++++++++++++++xxxyzyyyxwwsptx+++++++++++++++++++++++++++++++++++++++++++++++++++++++++++++zzzzyyxxwxxwwy++++++++++++++++++++++++++++++++++++++++++
(PID.TID 0000.0001) //     29 ++++++++++++++++++wwx+++++++++wwxyzxxyzxrnosspllkeabbaabdhmsvyzz++++++++++++++++++zxwwx++zyyxxwtps++++++++++++++++++++++++++++++++++++++++++++++++++++++++++++++yyzzyxxxxxxxxxz+++++++++++++++++++++++++++++++++++++++++
(PID.TID 0000.0001) //     28 +++++++++++++++xsvwxxxy+zzzzywwwwxyzwxyzypnorqnrwnc--aaabelsvxyx++++++++++++++++++zxxxx+++zyxxwvpr++++++++++++++++++++++++++++++++++++++++++++++++++++++++++++++yyzzyyxxyyyyyyzz++++++++++++++++++++++++++++++++++++++++
(PID.TID 0000.0001) //     27 +++++++++++++++vvwxxxxxxzzzyxwwvvwxyvwxyz+++trrwzwkdabccbenvwxxw++++++++++++++++++++xxyz++zyxxxwst+++++++++++++++++++++++++++++++++++++++++++++++++++++++++++++ywyz+zyxxyzz++zzz++++++++++++++++++++++++++++++++++++++++
(PID.TID 0000.0001) //     26 ++++++++++++++yxxyxwwwwxyyxxyxyyvwwxvwwxz++++yyyyyxvnmmmhhnuwxxy++++++++++++++++++++++++++zyxxxwss++++++++++++++++++++++++++++++++++++++++++++++++++++++++++++ywwx++zyyyxxxz++++z+++z+++++++++++++++++++++++++++++++++++
(PID.TID 0000.0001) //     25 +++++++++++++yyyyyxvuvwwwxwxyxy+vvwxvvwxzzx++++zxxxyxywwqorwxyy+++++++++++++++++++++++x++yyyxxxwss++++++++++++++++++++++++++++++++++++++++++++++++++++++++++++ywvwz+zzzwmkmrwyyzz+++z+++++++++++++++++++++++++++++++++++
(PID.TID 0000.0001) //     24 +++++++++++++yyyyyxwwwwstwwxyxy+wswxwswxyzz+++++xxxxy++xutvx++++++++++++++++++++++++++xx+yyzyxxvst++++++++++++++++++++++++++++++++++++++++++++++++++++++++++++ywxz++zzukgfghkqvxzz++zz++++++++++++++++++++++++++++++++++
(PID.TID 0000.0001) //     23 +++++++++++++zyyyyxxwwxxwwwxxxw++pvw+pvwxz++++++yxxy+++ywwwx+++++++++++++++++++++++oq+++xxzzyyxvsr++++++++++++++++++++++++++++++++++++++++++++++z+++++++++++++trwy+++wher+yumhkrwxy+wxy+++++++++++++++ww++++++++++++++++
(PID.TID 0000.0001) //     22 +++++++++++++zyyyyxyxxyyxwwwxxvr++wy++wy++++++++yxy+++++yxxw+++++++++++++++++++++++vlr+++x++zzywusw+++++++++++++++++++++++++++++++++++++++++++++xy++++++++++++wpqvy+xrht++++++xuuvwwuvww+++++++++++++lhhknw+++++++++++++
(PID.TID 0000.0001) //     21 +++++++++++++yxxyyyyxxyyxwwwxxrnv+++v++++++++++++yy++++++zyxy++++++++++++++++++++++vkkn++++++++xuutw++++++++++++++++++++++++++++++++++++++++++++xxx++++++++++++ywqsuop++++++++++++wu++wuwy++++++++++pkhghkklw+++++++++++
(PID.TID 0000.0001) //     20 +++++++++++++yxxyyyxxwxxxwwxxxpmqvwxqvwx+++++++++y++++++++++++++++++++++++++++++++++khknwt++++++wwwx++++++++++++++++++++++++++++++++++++++++++++xxxxxz++++++++++++wuw+++++++++++++++++++++++++x+++++okhhhhklr+++++++++++
(PID.TID 0000.0001) //     19 ++++++++++++++yyyyyyxwwwxwwxxwrnqwxyqwxy+++++++++++++++++y+++++++++++++++++++++++x++qlkmxx++++++xyy+++++++++++++++++++++++++++++++++++++++++++++yyxxwxz+++++++y++++++++++++++++++++++++++++++++ws++xqkhgghlow+++++++++++
(PID.TID 0000.0001) //     18 +++++++++++++++++++++wwxxxxwwwutwxz+wxz+++++++++++++++++yy++++yy++++++++w++++z++++++++rs++++++++++++++++++++++++++++++++++++++++++++++++++++++++yyyyxxz++++++y++++++++++++++++++++++++++++++++++xv+xqlhgfghkr+++++++++++
(PID.TID 0000.0001) //     17 +++++++++++++++++++++yxxyyxwturuy+++y++++++++++++++++++++yy++ywy++++++++v+++zy++++++++++++++++++++y+++++++++++++++++++++++++++++++++++++++++++++xxyzzyz++++zw+++++++++++++++++++++++++++++++++++xuwupkhgffghkq++++++++++
(PID.TID 0000.0001) //     16 +++++++++++++++++++++zxxxxxvrtqtz+++z+++++++++++++++++++++y++yy++++++z+++wwzz++++++++++++++++++++xxy++++++++++++++++++++++++++++++++++++++++++++xxyyyzz++++yw+++++++++++++++++++++++++++++++++++xsonnkhhggghho++++++++++
(PID.TID 0000.0001) //     15 zzzy++++++++++++++++++yxxxxvsusv+++++++++++++++++++++++++++z++++++++++yw+ytxy++xw++++++++++++++++wwx++++++++++++++++++++++++++++++++++++++++y+++yxxxxyz++++y+++++++++++++++++++++++++++++++++++++uoqsvkkhhhhkp++++++++++
(PID.TID 0000.0001) //     14 yyyxxy++++++++++++++++ywwwwvtttw++++++++++++++++++++++++++++++++++++++++++twxzzxwwwx++++++++++++zxwx+++++++++++++++++++++++++++++++++++++++++yy+xxwwxxxyz++v+++++++++++++++++++++++++++++++++++++woux+xmkhhklv++++++++++
(PID.TID 0000.0001) //     13 yxxxx++++++++++++++++++vvvvutsux+++++++++++++++++++++++++++++++++++++++++yvwxz++zzyy+++++++++++zyxwxx+++++++++++++++++++++++++++++++++++++++++++wvuttvwwvqot++++++++++++++++++++++++++++++++++++++vwy++plkkko+++++++++++
(PID.TID 0000.0001) //     12 xwwwy+++++++++++++++++xsuvuuuuwx++++++++++++++++++++++++++++++++++++++++++wwxzzzzzyy+++++++z+++xwwv++x++++++++++++++++++++++++++++++++++++++++++uqnmlossqoq++++++++++++++++++++++++++++++++++++++++++++qlkklw+++++++++++
(PID.TID 0000.0001) //     11 wwww++++++++++++++++++wtvvvvvvwy+++y+++y++++++++++++++++++++++++++zzzz+++wwwxyzzzzzz+++++zzyzywvtrv+++++++++++++++++++++++++++++++++++++++++++++pmmllnqpqw+++++++++++++++++++++++++++++++++++++++++++++qmmmq++++++++++++
(PID.TID 0000.0001) //     10 wwwx++++++++++++++++++xuvwwvuwy+++xw++xw+++++++++++++++++++++++++zyyyyzzywwwxyzzzzzzzzy++zxxxywvtsx+++++++++++++++++++++++++++++++++++++++++++++onnnoquw++++++++++++++++++++++++++++++++++++++++++++++++ww++++++++++++++
(PID.TID 0000.0001) //      9 wwwy+++++++++++++++++++tuvwvvw++++w+++w+++++++++++++++++++++++++zzyxyyyy+++yzzzzzzzzyxxzzywwxxyxxwx+++++++++++++++++++++++++++++++++++++++++++++rponrwy+++++++++++++++++++++++++++++++++++++++++++++++++++++++++++++++++
(PID.TID 0000.0001) //      8 wwy++++++++++++++++++++tuvvvwy++++x+++x+++++++++++++++++++++++yxxyxxxxyyyx+++zzzzzzyxyz+zzwwxxyxxwwxy+++++++++++++++++++++++++++++++++++++++++++tqposx++++++++++++++++++++++++++++++++++++++++++++++++++++++++++++++++++
(PID.TID 0000.0001) //      7 w++++++++++++++++++++++wvvusuz++++y+++y+++++++++++++++++++++++yxxxxxxxyzxsy++zzzzzzyyzzzzzxxxxwwwvvvxx+++++++++++++++++++++++++++++++++yxxxyy++++wxyy+++++++++++++++++++++++++++++++++++++++++++++++++++++++++++++++++++
(PID.TID 0000.0001) //      6 +++++++++++++++++++++++ywusqw+++++++++++++++++++++++++++++++++yxxxxxxxz+yrw++wzzzzyxyzzzzzxxxwuuwwxwxx++++++++++++++++++++++++++++++++zyyyyxxy++++++++++++++++++++++++++++++++++++++++++++++++++++++++++++++++++++++++++
(PID.TID 0000.0001) //      5 ++++++++++++++++++++++++vtrv++++++++++++++++++++++++++++++++++yxxyyyyyzzwtq++py++zyxzzzzzyxxxwsuwwxxxx+++++++++++++++++++++++++++++++yyxyzzzyy++++++++++++++++++++++++++++++++++++++++++++++++++++++++++++++++++++++++++
(PID.TID 0000.0001) //      4 ++++++++++++++++++++++++yyy+++++++++++++++++++++++++++++++++++yyyzzzzzzyxwsnnny++zyyyyzzywvtuvtvwwxxwx+++y+++y++++++++++++++++++w+++xxyyzzzzzz++++++++++++++++++++++++++++++++++++++++++++++++++++++++++++++++++++++++++
(PID.TID 0000.0001) //      3 +++++++++++++++++++++++++++++++++++++++++++++++++++++++++++++++++++++zzyxxtmnvz+zzzyxxxxwqpnotsuvwyxwy++++y+++y++++++++++++++++wv+++zyzzzzzyz+++++++++++++++++++++++++++++++++++++++++++++++++++++++++++++++++++++++++++
(PID.TID 0000.0001) //      2 ++++++++++++++++++++++++++++++++++++++++++++++++++++++++++++++++++++++zyyyunny+zzzzzxxwwrnmmmqsuvvxxw+++++y+++y++++++++++++++++w++++zyyz+zyyy+++++++++++++++++++++++++++++++++++++++++++++++++++++++++++++++++++++++++++
(PID.TID 0000.0001) //      1 ++++++++++++++++++++++++++++++++++++++++++++++++++++++++++++++++++++++++yxuooy+yyzzyxwwqoomlmqtvutwyy+++++y+++y++++++++++++++++y++++zyyyzzzzz+++++++++++++++++++++++++++++++++++++++++++++++++++++++++++y+++++++++++++++
(PID.TID 0000.0001) //      0 ++++++++++++++++++++++++++++++++++++++++++++++++++++++++++++++++++++++++wvvonrywwzywommlmpppqtttsuy++yy++yy++yy+++++++++++++++z++++zyyxxxyzz++++++++++++++++++++++++++++++++++++++++++++++++++++++++++++y+++++++yyz++++z
(PID.TID 0000.0001) //     -1 ++++++++++++++++++++++++++++++++++++++++++++++++++++++++++++++++++++++++qowqnotsswwphglqttrnnqssswz++++++++++++++++++++++++++++++++zyyxxxyz++++++++++++++++++++++++++++++++++++++++++++++++++++++++++++y+++++++yxyzzyz+y
(PID.TID 0000.0001) // =======================================================
(PID.TID 0000.0001) // END OF FIELD                                          =
(PID.TID 0000.0001) // =======================================================
(PID.TID 0000.0001) 
(PID.TID 0000.0001) // =======================================================
(PID.TID 0000.0001) // Field hFacC at iteration          0
(PID.TID 0000.0001) // CMIN =          2.000000000000000E-01
(PID.TID 0000.0001) // CMAX =          1.000000000000000E+00
(PID.TID 0000.0001) // CINT =          2.962962962962963E-02
(PID.TID 0000.0001) // SYMBOLS (CMIN->CMAX): -abcdefghijklmnopqrstuvwxyz+
(PID.TID 0000.0001) //                  0.0: .
(PID.TID 0000.0001) // RANGE I (Lo:Hi:Step):(    -1:   194:     1)
(PID.TID 0000.0001) // RANGE J (Lo:Hi:Step):(    34:    -1:    -1)
(PID.TID 0000.0001) // RANGE K (Lo:Hi:Step):(   1:   1:   1)
(PID.TID 0000.0001) // =======================================================
(PID.TID 0000.0001) K =   1
(PID.TID 0000.0001) //                I=8       I=18      I=28      I=34      I=44      I=54      I=64      I=70      I=80      I=90      I=96      I=106     I=116     I=126     I=132     I=142     I=152     I=162     I=168     I=178     I=188
(PID.TID 0000.0001) // |--J--|101234567|901234567|901234567|901234123|567890123|567890123|567890123|563456789|123456789|123456789|123456785|789012345|789012345|789012345|789078901|345678901|345678901|345678901|901234567|901234567|901234567|901234
(PID.TID 0000.0001) //     34 ++++++++++++++++++qe--bbap++++...........k+vtutskgc-..........hj-+++++++++++++++++++++hiorojd......k+++++++++++++++++++++++++++++++++++++++++++++++++++++++++++++++mgecdel++++++++++++++++++++++++++++++++++++++++++++++
(PID.TID 0000.0001) //     33 ++++++++++++++++++b...bac++k-............k+pqvspec-...........elk++++++++++++++++++++ihknomid......e+++++++++++++++++++++++++++++++++++++++++++++++++++++++++++++++tnhdc--l+++++++++++++++++++++++++++++++++++++++++++++
(PID.TID 0000.0001) //     32 ++++++++++++++++++ak+k+c-+e...bilg..lg....kaaro-..............k++kl++kkk++++++++++++mgillkije......d++++++++++++++++++++++++++++++++++++++++++++++++++++++++++++++ysnheba--+++++++++++++++++++++++++++++++++++++++++++++
(PID.TID 0000.0001) //     31 ++++++++++++++++-.++++++k+kfkdeipp-.pp-......db..............ar++++++++++++++++++++vkfilljikga.....+++++++++++++++++++++++++++++++++++++++++++++++++++++++++++++++yspmhbadcc++++++++++++++++++++++++++++++++++++++++++++
(PID.TID 0000.0001) //     30 ++++++++++++++++c+++++++++++++-citk.itk......................ju+++++++++++++++++++++hfipsnkmhc-...k+++++++++++++++++++++++++++++++++++++++++++++++++++++++++++++wuvrmlkgdhha-l++++++++++++++++++++++++++++++++++++++++++
(PID.TID 0000.0001) //     29 ++++++++++++++++++baf+++++++++-bfmvkfmvk.....................ouw++++++++++++++++++rkddi++tpoifa...++++++++++++++++++++++++++++++++++++++++++++++++++++++++++++++qoutnjjgfijgfhr+++++++++++++++++++++++++++++++++++++++++
(PID.TID 0000.0001) //     28 +++++++++++++++e..-fhjm+uuvtl---bfnwbfnwl.......-............kki++++++++++++++++++rjeej+++uoigc...++++++++++++++++++++++++++++++++++++++++++++++++++++++++++++++lovwolkjnpooqqrv++++++++++++++++++++++++++++++++++++++++
(PID.TID 0000.0001) //     27 +++++++++++++++..egiifekstspjd-..beo.beot+++...bta..........bjhd++++++++++++++++++++kint++xpige-..+++++++++++++++++++++++++++++++++++++++++++++++++++++++++++++ldmwytniiouwxxxvw++++++++++++++++++++++++++++++++++++++++
(PID.TID 0000.0001) //     26 ++++++++++++++kfimidbcdgkmiknill.-bj.-bjw++++llpmpe.........bfgl++++++++++++++++++++++++++vpjiga..++++++++++++++++++++++++++++++++++++++++++++++++++++++++++++m--iyzvnmnffiszxxxv+++v+++++++++++++++++++++++++++++++++++
(PID.TID 0000.0001) //     25 +++++++++++++qmmonf...b-agcgnil+..bj..bjutg++++vhhknhkc-...-ill+++++++++++++++++++++++j++qopkih-..++++++++++++++++++++++++++++++++++++++++++++++++++++++++++++l-.euzwtr-....dlpus+++s+++++++++++++++++++++++++++++++++++
(PID.TID 0000.0001) //     24 ++++++++++++xplmnng--a-..achmil+-.-i-.-inus+++++ighho++e...h++++++++++++++++++++++++++jh+pqslih...++++++++++++++++++++++++++++++++++++++++++++++++++++++++++++lbkrxxxu.........isw++sw++++++++++++++++++++++++++++++++++
(PID.TID 0000.0001) //     23 ++++++++++++ysnmmlhf-bifdcbgijc++..c+..cht++++++lgil+++ob-bg+++++++++++++++++++++++..+++jjrwpli...++++++++++++++++++++++++++++++++++++++++++++++v+++++++++++++..-qyyxc...+l.....afm+afm+++++++++++++++-c++++++++++++++++
(PID.TID 0000.0001) //     22 ++++++++++++ysonmmjkfhmnia-cfi..++al++al++++++++ofk+++++nigc+++++++++++++++++++++++...+++h++rrna..a+++++++++++++++++++++++++++++++++++++++++++++km++++++++++++e...nxi...++++++e...-d..-d+++++++++++++.....-+++++++++++++
(PID.TID 0000.0001) //     21 ++++++++++++yojkmnmlhjmmha-cfe...+++.++++++++++++ll++++++spjl++++++++++++++++++++++....++++++++j...a++++++++++++++++++++++++++++++++++++++++++++fgi++++++++++++l-.....++++++++++++e.++e.-l++++++++++........-+++++++++++
(PID.TID 0000.0001) //     20 +++++++++++++lfhlnljecfiidbgie....af..af+++++++++l+++++++++y++++++++++++++++++++++++....-.++++++-cej++++++++++++++++++++++++++++++++++++++++++++iihhjr++++++++++++-.c+++++++++++++++++++++++++j+++++.........+++++++++++
(PID.TID 0000.0001) //     19 ++++++++++++++lkoqpqi--bfdcegd...-fm.-fm+++++++++++++++++q+++++++++++++++++++++++j++....jj++++++kmp+++++++++++++++++++++++++++++++++++++++++++++llkidfsz++++++l++++++++++++++++++++++++++++++++b.++j........a+++++++++++
(PID.TID 0000.0001) //     18 +++++++++++++++++++++bbehgeb--..-kr+-kr+++++++++++++++++ll++++ll++++++++-++++t++++++++..++++++++++++++++++++++++++++++++++++++++++++++++++++++++llnoihr++++++l++++++++++++++++++++++++++++++++++j.+j.........+++++++++++
(PID.TID 0000.0001) //     17 +++++++++++++++++++++lghlkh-....lx++lx+++++++++++++++++++lp++lal++++++++.+++ro++++++++++++++++++++o+++++++++++++++++++++++++++++++++++++++++++++jkorrqv++++tc+++++++++++++++++++++++++++++++++++j.a...........++++++++++
(PID.TID 0000.0001) //     16 yy+++++++++++++++++++rhhkkg.....r+++r+++++++++++++++++++++l++pl++++++r+++abqw++++++++++++++++++++fim++++++++++++++++++++++++++++++++++++++++++++iimoorwz+++n-+++++++++++++++++++++++++++++++++++j.............++++++++++
(PID.TID 0000.0001) //     15 sstm++++++++++++++++++lfghe.....+++++++++++++++++++++++++++s++++++++++l-+k.eq++fc++++++++++++++++dbj++++++++++++++++++++++++++++++++++++++++o+++kjijkntx+++l+++++++++++++++++++++++++++++++++++++.............++++++++++
(PID.TID 0000.0001) //     14 pnnghl++++++++++++++++l--aa....a++++++++++++++++++++++++++++++++++++++++++.-kxwjccbj++++++++++++ufah+++++++++++++++++++++++++++++++++++++++++kl+geddegins++.+++++++++++++++++++++++++++++++++++++a..i+j.......++++++++++
(PID.TID 0000.0001) //     13 mhhei++++++++++++++++++........e+++++++++++++++++++++++++++++++++++++++++k.-guy+vsll+++++++++++uqe-jj+++++++++++++++++++++++++++++++++++++++++++a.....--....++++++++++++++++++++++++++++++++++++++.cn++......+++++++++++
(PID.TID 0000.0001) //     12 hedcn+++++++++++++++++g.......-g+++++++++++++++++++++++++++++++++++++x++++bbgsvwwuqp+++++++r+++gb-.++k++++++++++++++++++++++++++++++++++++++++++...........++++++++++++++++++++++++++++++++++++++++++++.....a+++++++++++
(PID.TID 0000.0001) //     11 bbcd++++++++++++++++++c.......al+++l+++l++++++++++++++++++++++++++sttt+++cabfqstuutu+++++wsqtna....+++++++++++++++++++++++++++++++++++++++++++++.........b+++++++++++++++++++++++++++++++++++++++++++++.....++++++++++++
(PID.TID 0000.0001) //     10 aa-e++++++++++++++++++e..--..-k+++gd++gd+++++++++++++++++++++++++vkknpswk-cafqsrrttuusqxytiijkb...j+++++++++++++++++++++++++++++++++++++++++++++.......-++++++++++++++++++++++++++++++++++++++++++++++++-a++++++++++++++
(PID.TID 0000.0001) //      9 d--l+++++++++++++++++++...-..c++++a+++a+++++++++++++++++++++++++urlkkmoq+++prtsrsuttmghtxnabejljh-j+++++++++++++++++++++++++++++++++++++++++++++.....-l+++++++++++++++++++++++++++++++++++++++++++++++++++++++++++++++++
(PID.TID 0000.0001) //      8 c-l++++++++++++++++++++.....-o++++f+++f+++++++++++++++++++++++ohilkihhmpke++yvsstutqjnsxxrddfikie--ko+++++++++++++++++++++++++++++++++++++++++++.....f++++++++++++++++++++++++++++++++++++++++++++++++++++++++++++++++++
(PID.TID 0000.0001) //      7 c++++++++++++++++++++++a.....s++++l+++l+++++++++++++++++++++++nggiigfhouf.k++rvtstsnmuxwvshghgc--...ek+++++++++++++++++++++++++++++++++piffkk++++dekk+++++++++++++++++++++++++++++++++++++++++++++++++++++++++++++++++++
(PID.TID 0000.0001) //      6 +++++++++++++++++++++++l-...a+++++++++++++++++++++++++++++++++nhhiiggjtyk.-++-swwumhowxwwtiihb..-bfafk++++++++++++++++++++++++++++++++sklnlifm++++++++++++++++++++++++++++++++++++++++++++++++++++++++++++++++++++++++++
(PID.TID 0000.0001) //      5 ++++++++++++++++++++++++....++++++++++++++++++++++++++++++++++oijlnmnqvxd..++.l+zuliquvxwqkhe-..-bjgge+++++++++++++++++++++++++++++++nmjottuqp++++++++++++++++++++++++++++++++++++++++++++++++++++++++++++++++++++++++++
(PID.TID 0000.0001) //      4 ++++++++++++++++++++++++kkk+++++++++++++++++++++++++++++++++++qmosuutttqeb....m++toooorul-......--jgck+++k+++k++++++++++++++++++-+++jglpsuuvvu++++++++++++++++++++++++++++++++++++++++++++++++++++++++++++++++++++++++++
(PID.TID 0000.0001) //      3 +++++++++++++++++++++++++++++++++++++++++++++++++++++++++++++++++++++vrnii....tyvtrqjhhh-........-kjak++++k+++k++++++++++++++++-.++xtprtvwtpr+++++++++++++++++++++++++++++++++++++++++++++++++++++++++++++++++++++++++++
(PID.TID 0000.0001) //      2 ++++++++++++++++++++++++++++++++++++++++++++++++++++++++++++++++++++++sppl...k+vtutskgc-..........hj-+++++k+++k++++++++++++++++-++++wqpuyxqnp+++++++++++++++++++++++++++++++++++++++++++++++++++++++++++++++++++++++++++
(PID.TID 0000.0001) //      1 ++++++++++++++++++++++++++++++++++++++++++++++++++++++++++++++++++++++++pg...k+pqvspec-...........elk+++++k+++k++++++++++++++++l++++somotvtrs+++++++++++++++++++++++++++++++++++++++++++++++++++++++++++l+++++++++++++++
(PID.TID 0000.0001) //      0 ++++++++++++++++++++++++++++++++++++++++++++++++++++++++++++++++++++++++-.....kaaro-..............k++kl++kk++kk+++++++++++++++r+++xtpmhhjqtv++++++++++++++++++++++++++++++++++++++++++++++++++++++++++++k+++++++mpu++++s
(PID.TID 0000.0001) //     -1 ++++++++++++++++++++++++++++++++++++++++++++++++++++++++++++++++++++++++..-......db..............ar++++++++++++++++++++++++++++++++tnkhfgnt++++++++++++++++++++++++++++++++++++++++++++++++++++++++++++o+++++++kfqvrps+p
(PID.TID 0000.0001) // =======================================================
(PID.TID 0000.0001) // END OF FIELD                                          =
(PID.TID 0000.0001) // =======================================================
(PID.TID 0000.0001) 
(PID.TID 0000.0001) // =======================================================
(PID.TID 0000.0001) // Field hFacW at iteration          0
(PID.TID 0000.0001) // CMIN =          2.000000000000000E-01
(PID.TID 0000.0001) // CMAX =          1.000000000000000E+00
(PID.TID 0000.0001) // CINT =          2.962962962962963E-02
(PID.TID 0000.0001) // SYMBOLS (CMIN->CMAX): -abcdefghijklmnopqrstuvwxyz+
(PID.TID 0000.0001) //                  0.0: .
(PID.TID 0000.0001) // RANGE I (Lo:Hi:Step):(    -1:   194:     1)
(PID.TID 0000.0001) // RANGE J (Lo:Hi:Step):(    34:    -1:    -1)
(PID.TID 0000.0001) // RANGE K (Lo:Hi:Step):(   1:   1:   1)
(PID.TID 0000.0001) // =======================================================
(PID.TID 0000.0001) K =   1
(PID.TID 0000.0001) //                I=8       I=18      I=28      I=34      I=44      I=54      I=64      I=70      I=80      I=90      I=96      I=106     I=116     I=126     I=132     I=142     I=152     I=162     I=168     I=178     I=188
(PID.TID 0000.0001) // |--J--|101234567|901234567|901234567|901234123|567890123|567890123|567890123|563456789|123456789|123456789|123456785|789012345|789012345|789012345|789078901|345678901|345678901|345678901|901234567|901234567|901234567|901234
(PID.TID 0000.0001) //     34 ++++++++++++++++++qe---baap+++............kvtttskgc-...........h--++++k.++++++++++++++hhioojd.......k++++++.+++++++++++++++++++++++++++++++++++.+++++++++++++++++++mgeccdel++++++++.+++++++++++++++++++++++++++++++++++.
(PID.TID 0000.0001) //     33 ++++++++++++++++++b....aac+k-.............kppqspec-............ekk++++k++++++++++++++ihhknmid.......e++++++++++++++++++++++++++++++++++++++++++++++++++++++++++++++tnhdc---l++++++++++++++++++++++++++++++++++++++++++++
(PID.TID 0000.0001) //     32 ++++++++++++++++++aakkkc--e....big..ig.....aaao-...............k+kkl+kkk++++++++++++mggilkiie.......d+++++++++++++++++++++++++++++++++++++++++++++++++++++++++++++ysnheba---++++++++++++++++++++++++++++++++++++++++++++
(PID.TID 0000.0001) //     31 ++++++++++++++++-..+++++kkkffddeip-.ip-.......b...............ar+++++++++++++++++++vkffiljiiga......++++++++++++++++++++++++++++++++++++++++++++++++++++++++++++++yspmhbaaccc+++++++++++++++++++++++++++++++++++++++++++
(PID.TID 0000.0001) //     30 ++++++++++++++++cc++++++++++++--cik.cik.......................ju++++++++++++++++++++hffipnkkhc-....k++++++++++++++++++++++++++++++++++++++++++++++++++++++++++++wuurmlkgddha--l+++++++++++++++++++++++++++++++++++++++++
(PID.TID 0000.0001) //     29 ++++++++++++++++++baaf++++++++--bfmkbfmk......................ouw+++++++++++++++++rkdddi+tpoifa....+++++++++++++++++++++++++++++++++++++++++++++++++++++++++++++qootnjjgffigffhr++++++++++++++++++++++++++++++++++++++++
(PID.TID 0000.0001) //     28 +++++++++++++++e...-fhjmuuutl----bfn-bfnl.....................kii+++++++++++++++++rjeeej++uoigc....+++++++++++++++++++++++++++++++++++++++++++++++++++++++++++++llovolkjjnoooqqrv+++v+++++++++++++++++++++++++++++++++++
(PID.TID 0000.0001) //     27 +++++++++++++++...egifeeksspjd-...be..beot++....ba...........bhdd+++++++++++++++++++kiint+xpige-...++++++++++++++++++++++++++++++++++++++++++++++++++++++++++++lddmwtniiiouwxxvvw+++w+++++++++++++++++++++++++++++++++++
(PID.TID 0000.0001) //     26 ++++++++++++++kffiidbbcdgkiikiil..-b..-bjw+++lllmme..........bfgl+++++++++++++++++++++++++vpjiga...+++++++++++++++++++++++++++++++++++++++++++++++++++++++++++m---iyvnmmfffisxxxvv++vv++++++++++++++++++++++++++++++++++
(PID.TID 0000.0001) //     25 +++++++++++++qmmmnf....--accgiil...b...bjtgg+++vhhhkhhc-....-ill++++++++++++++++++++++jj+qookih-...+++++++++++++++++++++++++++++++++++++++++++++++++++++++++++l-..euwtr-.....dlpss++ss++++++++++++++++++++++++++++++++++
(PID.TID 0000.0001) //     24 ++++++++++++xpllmng----...achiil-..--..-inss++++igghho+e....h+++++++++++++++++++++++++jhhppqlih....+++++++++++++++++++++++++++++++++++++++++++++++++++++++++++lbbkrxxu..........isw+isw+++++++++++++++++++++++++++++++++
(PID.TID 0000.0001) //     23 ++++++++++++ysnmmlhf--bfdcbbgicc+...+...cht+++++lggil++ob--bg++++++++++++++++++++++...++jjjrpli....+++++++++++++++++++++++++++++++++++++++++++++vv++++++++++++...-qyxc....l......afm.afm++++++++++++++--c+++++++++++++++
(PID.TID 0000.0001) //     22 ++++++++++++ysonmmjjffhmia--cf...+aa.+aal+++++++offk++++nigcc++++++++++++++++++++++....++hh+rrna...a++++++++++++++++++++++++++++++++++++++++++++hkm+++++++++++e....ni....+++++e....-...-d++++++++++++......-++++++++++++
(PID.TID 0000.0001) //     21 ++++++++++++yojjkmmlhhjmha--ce....++..+++++++++++lll+++++spjjl+++++++++++++++++++++.....+++++++j....a+++++++++++++++++++++++++++++++++++++++++++ffgi+++++++++++l-......+++++++++++e.++e..-l+++++++++.........-++++++++++
(PID.TID 0000.0001) //     20 +++++++++++++lffhlljeccfidbbge.....a...af++++++++ll++++++++yy+++++++++++++++++++++++.......+++++--cej+++++++++++++++++++++++++++++++++++++++++++iihhhjr+++++++++++-..c++++++++++++++++++++++++jj++++..........++++++++++
(PID.TID 0000.0001) //     19 ++++++++++++++lkkoppi---bdcced....-f..-fm++++++++++++++++qq++++++++++++++++++++++jj+.....jj+++++kkmp++++++++++++++++++++++++++++++++++++++++++++llkiddfsz+++++ll+++++++++++++++++++++++++++++++b..+j.........a++++++++++
(PID.TID 0000.0001) //     18 w++++++++++++++++++++bbbegeb--...-kr.-kr++++++++++++++++lll+++lll+++++++--+++tt+++++++...+++++++++++++++++++++++++++++++++++++++++++++++++++++++lllnihhr+++++ll+++++++++++++++++++++++++++++++++j..j..........++++++++++
(PID.TID 0000.0001) //     17 u++++++++++++++++++++lgghkh-.....lx+.lx++++++++++++++++++llp+laal+++++++..++roo+++++++++++++++++++oo++++++++++++++++++++++++++++++++++++++++++++jjkorqqv+++tcc++++++++++++++++++++++++++++++++++j..............+++++++++
(PID.TID 0000.0001) //     16 vyy++++++++++++++++++rhhhkg......r++.r++++++++++++++++++++ll+pll+++++rr++aabqw+++++++++++++++++++ffim+++++++++++++++++++++++++++++++++++++++++++iiimoorwz++n--++++++++++++++++++++++++++++++++++j..............+++++++++
(PID.TID 0000.0001) //     15 rssmm+++++++++++++++++lffge......+++.++++++++++++++++++++++ss+++++++++l-+k..eq+fcc+++++++++++++++dbbj+++++++++++++++++++++++++++++++++++++++oo++kjiijkntx++ll++++++++++++++++++++++++++++++++++++..............+++++++++
(PID.TID 0000.0001) //     14 mnngghl+++++++++++++++l---a.....a+++a+++++++++++++++++++++++++++++++++++++..-kwjccbbj+++++++++++ufaah++++++++++++++++++++++++++++++++++++++++kklgedddegins+..++++++++++++++++++++++++++++++++++++a...ij........+++++++++
(PID.TID 0000.0001) //     13 lhheei+++++++++++++++++.........e+++e++++++++++++++++++++++++++++++++++++k..-guyvslll++++++++++uqe--jj++++++++++++++++++++++++++++++++++++++++++a......-.....+++++++++++++++++++++++++++++++++++++..cn+.......++++++++++
(PID.TID 0000.0001) //     12 hedccn++++++++++++++++g........-g+++g++++++++++++++++++++++++++++++++xx+++bbbgsvwuqpp++++++rr++gb-..+kk+++++++++++++++++++++++++++++++++++++++++............+++++++++++++++++++++++++++++++++++++++++++......a++++++++++
(PID.TID 0000.0001) //     11 bbbcd+++++++++++++++++c........al++ll++ll+++++++++++++++++++++++++ssttt++caabfqstuttu++++wsqqna.....++++++++++++++++++++++++++++++++++++++++++++..........b++++++++++++++++++++++++++++++++++++++++++++......+++++++++++
(PID.TID 0000.0001) //     10 aa--e+++++++++++++++++e...-...-k++gd++gdd++++++++++++++++++++++++vkkknpsk--aafqrrrttusqqxtiiijb....j++++++++++++++++++++++++++++++++++++++++++++........-+++++++++++++++++++++++++++++++++++++++++++++++--a+++++++++++++
(PID.TID 0000.0001) //      9 d---l++++++++++++++++++.......c+++aa++aa++++++++++++++++++++++++urlkkkmo+++pprsrrsttmgghtnaabejjh--j++++++++++++++++++++++++++++++++++++++++++++......-l++++++++++++++++++++++++++++++++++++++++++++++++++++++++++++++++
(PID.TID 0000.0001) //      8 c--l+++++++++++++++++++......-o+++ff++ff++++++++++++++++++++++ohhikihhhmkee+yvsssttqjjnsxrdddfiie---ko++++++++++++++++++++++++++++++++++++++++++......f+++++++++++++++++++++++++++++++++++++++++++++++++++++++++++++++++
(PID.TID 0000.0001) //      7 ac+++++++++++++++++++++a......s+++ll++ll++++++++++++++++++++++ngggigffhof..k+rrtsssnmmuwvshgggc--....ek++++++++++++++++++++++++++++++++pifffkk+++ddekk++++++++++++++++++++++++++++++++++++++++++++++++++++++++++++++++++
(PID.TID 0000.0001) //      6 -++++++++++++++++++++++l-....a++++++++++++++++++++++++++++++++nhhhigggjtk..-+--swumhhowwwtiihb...-baafk+++++++++++++++++++++++++++++++skklliffm+++++++++++++++++++++++++++++++++++++++++++++++++++++++++++++++++++++++++
(PID.TID 0000.0001) //      5 l+++++++++++++++++++++++.....+++++++++++++++++++++++++++++++++oiijlmmnqvd...+..lzuliiquvwqkhe-...-bggee++++++++++++++++++++++++++++++nmjjottqpp+++++++++++++++++++++++++++++++++++++++++++++++++++++++++++++++++++++++++
(PID.TID 0000.0001) //      4 ++++++++++++++++++++++++kkkk++++++++++++++++++++++++++++++++++qmmosutttq-b.....m+tooooorl-.......--gcck++kk++kk+++++++++++++++++--++jgglpsuuvuu+++++++++++++++++++++++++++++++++++++++++++++++++++++++++++++++++++++++++
(PID.TID 0000.0001) //      3 +++++++++++++++++++++++++++++++++++++++++++++++++++++++++++++++++++++vrnci.....tvtrqjhhh-.........-jaak+++kk++kk+++++++++++++++-..+xtpprtvtppr++++++++++++++++++++++++++++++++++++++++++++++++++++++++++++++++++++++++++
(PID.TID 0000.0001) //      2 ++++++++++++++++++++++++++++++++++++++++++++++++++++++++++++++++++++++spil....kvtttskgc-...........h--++++kk++kk+++++++++++++++--+++wqppuxqnnp++++++++++++++++++++++++++++++++++++++++++++++++++++++++++++++++++++++++++
(PID.TID 0000.0001) //      1 ++++++++++++++++++++++++++++++++++++++++++++++++++++++++++++++++++++++++pg....kppqspec-............ekk++++kk++kk+++++++++++++++ll+++sommottrrs++++++++++++++++++++++++++++++++++++++++++++++++++++++++++ll++++++++++++++
(PID.TID 0000.0001) //      0 ++++++++++++++++++++++++++++++++++++++++++++++++++++++++++++++++++++++++-......aaao-...............k+kkl+kkk+kkk++++++++++++++rr++xtpmhhhjqtv+++++++++++++++++++++++++++++++++++++++++++++++++++++++++++kk++++++mmpu+++s
(PID.TID 0000.0001) //     -1 +++++++++++++++++++++++++++++++++++++++++++++++++++++++++++++++++++++++p..-.......b...............ar+++++++++++++++++++++++++++++++tnkhffgnt+++++++++++++++++++++++++++++++++++++++++++++++++++++++++++oo++++++kffqrpps+
(PID.TID 0000.0001) // =======================================================
(PID.TID 0000.0001) // END OF FIELD                                          =
(PID.TID 0000.0001) // =======================================================
(PID.TID 0000.0001) 
(PID.TID 0000.0001) // =======================================================
(PID.TID 0000.0001) // Field hFacS at iteration          0
(PID.TID 0000.0001) // CMIN =          2.000000000000000E-01
(PID.TID 0000.0001) // CMAX =          1.000000000000000E+00
(PID.TID 0000.0001) // CINT =          2.962962962962963E-02
(PID.TID 0000.0001) // SYMBOLS (CMIN->CMAX): -abcdefghijklmnopqrstuvwxyz+
(PID.TID 0000.0001) //                  0.0: .
(PID.TID 0000.0001) // RANGE I (Lo:Hi:Step):(    -1:   194:     1)
(PID.TID 0000.0001) // RANGE J (Lo:Hi:Step):(    34:    -1:    -1)
(PID.TID 0000.0001) // RANGE K (Lo:Hi:Step):(   1:   1:   1)
(PID.TID 0000.0001) // =======================================================
(PID.TID 0000.0001) K =   1
(PID.TID 0000.0001) //                I=8       I=18      I=28      I=34      I=44      I=54      I=64      I=70      I=80      I=90      I=96      I=106     I=116     I=126     I=132     I=142     I=152     I=162     I=168     I=178     I=188
(PID.TID 0000.0001) // |--J--|101234567|901234567|901234567|901234123|567890123|567890123|567890123|563456789|123456789|123456789|123456785|789012345|789012345|789012345|789078901|345678901|345678901|345678901|901234567|901234567|901234567|901234
(PID.TID 0000.0001) //     34 ++++++++++++++++++b...baap+k-........g...k+pquspec-...........ej-+++++k.+++++++++++++ihinomid......e+++++++.+++++++++++++++++++++++++++++++++++.+++++++++++++++++++mgecc--l++++++++.+++++++++++++++++++++++++++++++++++.
(PID.TID 0000.0001) //     33 ++++++++++++++++++a...ba-+e...............kaaro-..............elkkl++kkk++++++++++++mghklkiid......d++++++++++++++++++++++++++++++++++++++++++++++++++++++++++++++ysnhdb---+++++++++++++++++++++++++++++++++++++++++++++
(PID.TID 0000.0001) //     32 ++++++++++++++++-.ak+k+c-+e...bilg..lg.......db...............k++kl++kkk+++++++++++vkfilljije......d++++++++++++++++++++++++++++++++++++++++++++++++++++++++++++++ysnheba--c++++++++++++++++++++++++++++++++++++++++++++
(PID.TID 0000.0001) //     31 ++++++++++++++++-.++++++k+kfkd-cip-.ip-......................ar++++++++++++++++++++vhfilljikga.....+++++++++++++++++++++++++++++++++++++++++++++++++++++++++++++wuvrmlhbadca-l++++++++++++++++++++++++++++++++++++++++++
(PID.TID 0000.0001) //     30 ++++++++++++++++c+baf+++++++++-bfmk.fmk......................juw++++++++++++++++++rkddipsnkmhc-...k+++++++++++++++++++++++++++++++++++++++++++++++++++++++++++++qourmjjgdhha-hr+++++++++++++++++++++++++++++++++++++++++
(PID.TID 0000.0001) //     29 +++++++++++++++e..-afjm+uuvtl---bfnkbfnk.....................kki++++++++++++++++++rjddi++tpoifa...++++++++++++++++++++++++++++++++++++++++++++++++++++++++++++++loutnjjgfijgfhrv++++++++++++++++++++++++++++++++++++++++
(PID.TID 0000.0001) //     28 +++++++++++++++...-fhfekstspj--..beo.beol.......-............jhd++++++++++++++++++rjeejt++uoigc...+++++++++++++++++++++++++++++++++++++++++++++++++++++++++++++ldmvwoliinpooqqrv++++++++++++++++++++++++++++++++++++++++
(PID.TID 0000.0001) //     27 ++++++++++++++k..egdbcdgkmikjd-..-bj.-bjt+++...bma..........bfgd++++++++++++++++++++kint++vpige-..++++++++++++++++++++++++++++++++++++++++++++++++++++++++++++m--iwytniiffisxxvwv+++v+++++++++++++++++++++++++++++++++++
(PID.TID 0000.0001) //     26 +++++++++++++qkfimf...b-agcgnill..bj..bjutg++llphhe.........bfgl++++++++++++++++++++++j++qopjig-..++++++++++++++++++++++++++++++++++++++++++++++++++++++++++++l-.euzvnm-....dlpus+++s+++++++++++++++++++++++++++++++++++
(PID.TID 0000.0001) //     25 ++++++++++++xplmnnf...-..acgmil+..-i..-intg++++vhghhhkc-...-ill+++++++++++++++++++++++jh+popkih...++++++++++++++++++++++++++++++++++++++++++++++++++++++++++++l-.euxwt.........isw++sw++++++++++++++++++++++++++++++++++
(PID.TID 0000.0001) //     24 ++++++++++++xplmmlg--a-..abgiic+-..c-..chts+++++ighho++e...g+++++++++++++++++++++++..+jhjjqslih...++++++++++++++++++++++++++++++++++++++++++++++v+++++++++++++..-qxxxc..........afm+afm+++++++++++++++-c++++++++++++++++
(PID.TID 0000.0001) //     23 ++++++++++++ysnmmlhf-bifda-cfi..+..c+..cht++++++lfil+++ob-bc+++++++++++++++++++++++...++jhrwpli...a+++++++++++++++++++++++++++++++++++++++++++++km++++++++++++....nxi....+l.......-d..-d+++++++++++++.....-+++++++++++++
(PID.TID 0000.0001) //     22 ++++++++++++yojkmmjkfhmmha-cfe...+al.+al++++++++ofk+++++nigcl++++++++++++++++++++++....++h++rrna...a++++++++++++++++++++++++++++++++++++++++++++fgi+++++++++++e.........++++++e...-...-.-l++++++++++........-+++++++++++
(PID.TID 0000.0001) //     21 ++++++++++++ylfhlnljecfiha-cfe....af..af+++++++++ll++++++spjl++++++++++++++++++++++.....-.+++++j...a++++++++++++++++++++++++++++++++++++++++++++fghhjr+++++++++l-.....++++++++++++e.++e.-l++++j+++++.........+++++++++++
(PID.TID 0000.0001) //     20 +++++++++++++lfhlnlje--bfdbegd....af..af+++++++++l+++++++q+y+++++++++++++++++++++j++....-.++++++-cej++++++++++++++++++++++++++++++++++++++++++++iihhdfsz++++++l+++-.c+++++++++++++++++++++++++jb.++j.........+++++++++++
(PID.TID 0000.0001) //     19 ++++++++++++++lkoqpqi--bfdcb--...-fm.-fm++++++++++++++++ll++++ll++++++++-++++t+++j++....jj++++++kmp+++++++++++++++++++++++++++++++++++++++++++++llkidfrz+++++ll++++++++++++++++++++++++++++++++b..+j.........+++++++++++
(PID.TID 0000.0001) //     18 +++++++++++++++++++++bbehge-....-kr+-kr+++++++++++++++++llp++lal++++++++.+++ro++++++++..++++++++++o+++++++++++++++++++++++++++++++++++++++++++++jknoihr++++tcl++++++++++++++++++++++++++++++++++j.a...........++++++++++
(PID.TID 0000.0001) //     17 yy+++++++++++++++++++lghkkg.....lx++lx+++++++++++++++++++ll++lal+++++r++.abqro+++++++++++++++++++fim++++++++++++++++++++++++++++++++++++++++++++iimooqvz+++n-+++++++++++++++++++++++++++++++++++j.............++++++++++
(PID.TID 0000.0001) //     16 sstm+++++++++++++++++rhfghe.....r+++r+++++++++++++++++++++ls+pl++++++rl-+a.eq++fc++++++++++++++++dbj++++++++++++++++++++++++++++++++++++++++o+++iiijkntx+++l-+++++++++++++++++++++++++++++++++++j.............++++++++++
(PID.TID 0000.0001) //     15 pnnghl++++++++++++++++l--aa.....+++++++++++++++++++++++++++s++++++++++l-+k.-kxwfccbj++++++++++++udah++++++++++++++++++++++++++++++++++++++++okl+geddegins++.+++++++++++++++++++++++++++++++++++++.............++++++++++
(PID.TID 0000.0001) //     14 mhhehl++++++++++++++++l........a+++++++++++++++++++++++++++++++++++++++++k.-guwjccbj+++++++++++uqe-hj++++++++++++++++++++++++++++++++++++++++kl+a.....--....+++++++++++++++++++++++++++++++++++++a..i+j.......++++++++++
(PID.TID 0000.0001) //     13 hedci+++++++++++++++++g........e+++++++++++++++++++++++++++++++++++++x+++k.-gsvwvsll+++++++r+++gb-.jjk++++++++++++++++++++++++++++++++++++++++++............++++++++++++++++++++++++++++++++++++++.cn++......+++++++++++
(PID.TID 0000.0001) //     12 bbccn+++++++++++++++++c.......-g+++l+++l++++++++++++++++++++++++++sttt+++cabfqstuuqp+++++wsqtna....++k++++++++++++++++++++++++++++++++++++++++++...........++++++++++++++++++++++++++++++++++++++++++++.....a+++++++++++
(PID.TID 0000.0001) //     11 aa-d++++++++++++++++++c.......al++gd++gd+++++++++++++++++++++++++vkknpswk-aafqsrrttuusqxytiijka....+++++++++++++++++++++++++++++++++++++++++++++.........b+++++++++++++++++++++++++++++++++++++++++++++.....++++++++++++
(PID.TID 0000.0001) //     10 a--e++++++++++++++++++e...-..-k+++ad++ad++++++++++++++++++++++++urkkkmoqk-cafqsrrtttmghtxnabejb...j+++++++++++++++++++++++++++++++++++++++++++++.......-++++++++++++++++++++++++++++++++++++++++++++++++-a++++++++++++++
(PID.TID 0000.0001) //      9 c--l+++++++++++++++++++......c++++a+++a+++++++++++++++++++++++ohilkihhmpke+prtsrsutqjghtxnabeikie--ko+++++++++++++++++++++++++++++++++++++++++++.....-l+++++++++++++++++++++++++++++++++++++++++++++++++++++++++++++++++
(PID.TID 0000.0001) //      8 c-l++++++++++++++++++++......o++++f+++f+++++++++++++++++++++++nggiigfhmpf.k+yrssstsnjnswvrddfgc--...ek+++++++++++++++++++++++++++++++++piffkk+++.....f++++++++++++++++++++++++++++++++++++++++++++++++++++++++++++++++++
(PID.TID 0000.0001) //      7 c++++++++++++++++++++++a.....s++++l+++l+++++++++++++++++++++++nggiigfhouf.-++-ststmhmuxwvshghb..-...ek++++++++++++++++++++++++++++++++skiffifm+++dekk+++++++++++++++++++++++++++++++++++++++++++++++++++++++++++++++++++
(PID.TID 0000.0001) //      6 +++++++++++++++++++++++l....a+++++++++++++++++++++++++++++++++nhhiiggjtxd..++.lwwulhouvwwqihe-..-bfafe+++++++++++++++++++++++++++++++nmjlnlifm++++++++++++++++++++++++++++++++++++++++++++++++++++++++++++++++++++++++++
(PID.TID 0000.0001) //      5 ++++++++++++++++++++++++....++++++++++++++++++++++++++++++++++oijlnmnqtqd.....l+ztlioorul-......--jgce+++k+++k++++++++++++++++++-+++jgljottuqp++++++++++++++++++++++++++++++++++++++++++++++++++++++++++++++++++++++++++
(PID.TID 0000.0001) //      4 ++++++++++++++++++++++++kkk+++++++++++++++++++++++++++++++++++qmosuuttrneb....myvtoojhhh-........-jgak+++kk++kk++++++++++++++++-.++xjglpsutpru++++++++++++++++++++++++++++++++++++++++++++++++++++++++++++++++++++++++++
(PID.TID 0000.0001) //      3 +++++++++++++++++++++++++++++++++++++++++++++++++++++++++++++++++++++vrnii....tvttrqjgc-..........hj-k++++k+++k++++++++++++++++-.++xtpptvwqnp+++++++++++++++++++++++++++++++++++++++++++++++++++++++++++++++++++++++++++
(PID.TID 0000.0001) //      2 ++++++++++++++++++++++++++++++++++++++++++++++++++++++++++++++++++++++sppg...k+pquspec-...........ej-+++++k+++k++++++++++++++++-++++somotvqnp+++++++++++++++++++++++++++++++++++++++++++++++++++++++++++l+++++++++++++++
(PID.TID 0000.0001) //      1 ++++++++++++++++++++++++++++++++++++++++++++++++++++++++++++++++++++++++-.....kaaro-..............elkkl++kk++kk+++++++++++++++rl++xtpmhhjqtrs+++++++++++++++++++++++++++++++++++++++++++++++++++++++++++k+++++++mpu++++s
(PID.TID 0000.0001) //      0 +++++++++++++++++++++++++++++++++++++++++++++++++++++++++++++++++++++++p.g.......db...............k++kl++kkk++k+++++++++++++++r+++xtnkhfgntv+++++++++++++++++++++++++++++++++++++++++++++++++++++++++++ok++++++kfpurps++
(PID.TID 0000.0001) //     -1 +++++++++++++++++++++++++++++++++++++++++++++++++++++++++++++++++++++++pip-......................ar++++++++++++++++++++++++++++++++tkkhfgmt++++++++++++++++++++++++++++++++++++++++++++++++++++++++++++o+++++++kfqvpnrv+
(PID.TID 0000.0001) // =======================================================
(PID.TID 0000.0001) // END OF FIELD                                          =
(PID.TID 0000.0001) // =======================================================
(PID.TID 0000.0001) 
(PID.TID 0000.0001) GAD_INIT_FIXED: GAD_OlMinSize=  2  0  1
(PID.TID 0000.0001) 
(PID.TID 0000.0001) // ===================================
(PID.TID 0000.0001) // GAD parameters :
(PID.TID 0000.0001) // ===================================
(PID.TID 0000.0001) tempAdvScheme =   /* Temp. Horiz.Advection scheme selector */
(PID.TID 0000.0001)                       2
(PID.TID 0000.0001)     ;
(PID.TID 0000.0001) tempVertAdvScheme =   /* Temp. Vert. Advection scheme selector */
(PID.TID 0000.0001)                       2
(PID.TID 0000.0001)     ;
(PID.TID 0000.0001) tempMultiDimAdvec =   /* use Muti-Dim Advec method for Temp */
(PID.TID 0000.0001)                   F
(PID.TID 0000.0001)     ;
(PID.TID 0000.0001) tempSOM_Advection = /* use 2nd Order Moment Advection for Temp */
(PID.TID 0000.0001)                   F
(PID.TID 0000.0001)     ;
(PID.TID 0000.0001) AdamsBashforthGt = /* apply Adams-Bashforth extrapolation on Gt */
(PID.TID 0000.0001)                   T
(PID.TID 0000.0001)     ;
(PID.TID 0000.0001) AdamsBashforth_T = /* apply Adams-Bashforth extrapolation on Temp */
(PID.TID 0000.0001)                   F
(PID.TID 0000.0001)     ;
(PID.TID 0000.0001) saltAdvScheme =   /* Salt. Horiz.advection scheme selector */
(PID.TID 0000.0001)                       3
(PID.TID 0000.0001)     ;
(PID.TID 0000.0001) saltVertAdvScheme =   /* Salt. Vert. Advection scheme selector */
(PID.TID 0000.0001)                       3
(PID.TID 0000.0001)     ;
(PID.TID 0000.0001) saltMultiDimAdvec =   /* use Muti-Dim Advec method for Salt */
(PID.TID 0000.0001)                   F
(PID.TID 0000.0001)     ;
(PID.TID 0000.0001) saltSOM_Advection = /* use 2nd Order Moment Advection for Salt */
(PID.TID 0000.0001)                   F
(PID.TID 0000.0001)     ;
(PID.TID 0000.0001) AdamsBashforthGs = /* apply Adams-Bashforth extrapolation on Gs */
(PID.TID 0000.0001)                   T
(PID.TID 0000.0001)     ;
(PID.TID 0000.0001) AdamsBashforth_S = /* apply Adams-Bashforth extrapolation on Salt */
(PID.TID 0000.0001)                   F
(PID.TID 0000.0001)     ;
(PID.TID 0000.0001) // ===================================
(PID.TID 0000.0001)  LAND_READPARMS: opening data.land
(PID.TID 0000.0001)  OPEN_COPY_DATA_FILE: opening file data.land
(PID.TID 0000.0001) // =======================================================
(PID.TID 0000.0001) // Parameter file "data.land"
(PID.TID 0000.0001) // =======================================================
(PID.TID 0000.0001) ># Land package parameters:
(PID.TID 0000.0001) >
(PID.TID 0000.0001) >#--  Land model parameter (namelist LAND_MODEL_PAR):
(PID.TID 0000.0001) >#     land_calc_grT  :: step forward ground Temperature
(PID.TID 0000.0001) >#     land_calc_grW  :: step forward soil moiture
(PID.TID 0000.0001) >#     land_impl_grT  :: solve ground Temperature implicitly
(PID.TID 0000.0001) >#     land_calc_snow :: step forward snow thickness
(PID.TID 0000.0001) >#     land_calc_alb  :: compute albedo of snow over land
(PID.TID 0000.0001) >#     land_oldPickup :: restart from an old pickup (=before checkpoint 52l)
(PID.TID 0000.0001) >#     land_grT_iniFile  :: File containing initial ground Temp.
(PID.TID 0000.0001) >#     land_grW_iniFile  :: File containing initial ground Water.
(PID.TID 0000.0001) >#     land_snow_iniFile :: File containing initial snow thickness.
(PID.TID 0000.0001) >#     land_deltaT   :: land model time-step
(PID.TID 0000.0001) >#     land_taveFreq :: Frequency^-1 for time-Aver. output (s)
(PID.TID 0000.0001) >#     land_diagFreq :: Frequency^-1 for diagnostic output (s)
(PID.TID 0000.0001) >#     land_monFreq  :: Frequency^-1 for monitor    output (s)
(PID.TID 0000.0001) >#     land_dzF      :: layer thickness
(PID.TID 0000.0001) > &LAND_MODEL_PAR
(PID.TID 0000.0001) ># land_calc_grT =.FALSE.,
(PID.TID 0000.0001) ># land_calc_grW =.FALSE.,
(PID.TID 0000.0001) ># land_impl_grT =.FALSE.,
(PID.TID 0000.0001) ># land_calc_snow=.FALSE.,
(PID.TID 0000.0001) ># land_calc_alb =.FALSE.,
(PID.TID 0000.0001) >  land_grT_iniFile='land_grT_ini.cpl.bin',
(PID.TID 0000.0001) >  land_grW_iniFile='land_grW_ini.mn.bin',
(PID.TID 0000.0001) >  land_snow_iniFile='land_snw_ini.cpl.bin',
(PID.TID 0000.0001) ># land_oldPickup=.TRUE.,
(PID.TID 0000.0001) >  land_dzF= 0.1, 4.0,
(PID.TID 0000.0001) ># land_diagFreq=2592000.,
(PID.TID 0000.0001) > /
(PID.TID 0000.0001) >
(PID.TID 0000.0001) >#--  Physical constants (namelist LAND_PHYS_PAR):
(PID.TID 0000.0001) >#     land_grdLambda  :: Thermal conductivity of the ground (W/m/K)
(PID.TID 0000.0001) >#     land_heatCs     :: Heat capacity of dry soil (J/m3/K)
(PID.TID 0000.0001) >#     land_CpWater    :: Heat capacity of water    (J/kg/K)
(PID.TID 0000.0001) >#     land_wTauDiff   :: soil moisture diffusion time scale
(PID.TID 0000.0001) >#     land_waterCap   :: field capacity per meter of soil
(PID.TID 0000.0001) >#     land_fractRunOff:: fraction of water in excess which run-off
(PID.TID 0000.0001) >#     land_rhoLiqW    :: density of liquid water (kg/m3)
(PID.TID 0000.0001) >#     land_rhoSnow    :: density of snow (kg/m3)
(PID.TID 0000.0001) >#     land_Lfreez     :: Latent heat of freezing (J/kg)
(PID.TID 0000.0001) >#     land_hMaxSnow   :: Maximum snow-thickness  (m)
(PID.TID 0000.0001) >#     diffKsnow       :: thermal conductivity of snow (W/m/K)
(PID.TID 0000.0001) >#     timeSnowAge     :: snow aging time scale   (s)
(PID.TID 0000.0001) >#     hNewSnowAge     :: new snow thickness that refresh the snow-age (by 1/e)
(PID.TID 0000.0001) >#     albColdSnow     :: albedo of cold (=dry) new snow (Tsfc < -10)
(PID.TID 0000.0001) >#     albWarmSnow     :: albedo of warm (=wet) new snow (Tsfc = 0)
(PID.TID 0000.0001) >#     albOldSnow      :: albedo of old snow (snowAge > 35.d)
(PID.TID 0000.0001) >#     hAlbSnow        :: snow thickness for albedo transition: snow/ground
(PID.TID 0000.0001) > &LAND_PHYS_PAR
(PID.TID 0000.0001) ># land_Lfreez=0.,
(PID.TID 0000.0001) >  land_hMaxSnow=10.,
(PID.TID 0000.0001) > /
(PID.TID 0000.0001) 
(PID.TID 0000.0001)  LAND_READPARMS: finished reading data.land
(PID.TID 0000.0001) 
(PID.TID 0000.0001) // ===================================
(PID.TID 0000.0001) // Land package parameters :
(PID.TID 0000.0001) // ===================================
(PID.TID 0000.0001) land_calc_grT = /* step forward ground Temp. on/off flag */
(PID.TID 0000.0001)                   T
(PID.TID 0000.0001)     ;
(PID.TID 0000.0001) land_calc_grW = /* step forward soil moiture on/off flag */
(PID.TID 0000.0001)                   T
(PID.TID 0000.0001)     ;
(PID.TID 0000.0001) land_impl_grT = /* solve ground temperature implicitly */
(PID.TID 0000.0001)                   T
(PID.TID 0000.0001)     ;
(PID.TID 0000.0001) land_calc_snow = /* step forward snow thickness */
(PID.TID 0000.0001)                   T
(PID.TID 0000.0001)     ;
(PID.TID 0000.0001) land_calc_alb = /* compute land+snow albedo */
(PID.TID 0000.0001)                   T
(PID.TID 0000.0001)     ;
(PID.TID 0000.0001) land_grT_iniFile = /* Initial ground-Temp Input-File */
(PID.TID 0000.0001)                 land_grT_ini.cpl.bin
(PID.TID 0000.0001)     ;
(PID.TID 0000.0001) land_grW_iniFile = /* Initial soil-Water Input-File */
(PID.TID 0000.0001)                 land_grW_ini.mn.bin
(PID.TID 0000.0001)     ;
(PID.TID 0000.0001) land_snow_iniFile= /* Initial snow thickness Input-File */
(PID.TID 0000.0001)                 land_grW_ini.mn.bin
(PID.TID 0000.0001)     ;
(PID.TID 0000.0001) land_deltaT = /* land model Time-Step (s) */
(PID.TID 0000.0001)                 4.500000000000000E+02
(PID.TID 0000.0001)     ;
(PID.TID 0000.0001) land_taveFreq = /* Frequency^-1 for time-Aver. output (s) */
(PID.TID 0000.0001)                 2.592000000000000E+06
(PID.TID 0000.0001)     ;
(PID.TID 0000.0001) land_diagFreq = /* Frequency^-1 for diagnostic output (s) */
(PID.TID 0000.0001)                 2.592000000000000E+06
(PID.TID 0000.0001)     ;
(PID.TID 0000.0001) land_monFreq = /* Frequency^-1 for monitor output (s) */
(PID.TID 0000.0001)                 2.592000000000000E+06
(PID.TID 0000.0001)     ;
(PID.TID 0000.0001) land_dzF = /* layer thickness ( m ) */
(PID.TID 0000.0001)                 1.000000000000000E-01,      /* K =  1 */
(PID.TID 0000.0001)                 4.000000000000000E+00       /* K =  2 */
(PID.TID 0000.0001)     ;
(PID.TID 0000.0001) land_rec_dzC= /* recip. vertical spacing (m-1) */
(PID.TID 0000.0001)                 2.000000000000000E+01,      /* K =  1 */
(PID.TID 0000.0001)                 4.878048780487805E-01       /* K =  2 */
(PID.TID 0000.0001)     ;
(PID.TID 0000.0001) land_timeave_mdsio = /* use MDSIO for Tave output */
(PID.TID 0000.0001)                   T
(PID.TID 0000.0001)     ;
(PID.TID 0000.0001) land_timeave_mnc = /* use MNC for Tave output */
(PID.TID 0000.0001)                   F
(PID.TID 0000.0001)     ;
(PID.TID 0000.0001) land_snapshot_mdsio = /* use MDSIO for snapshot output */
(PID.TID 0000.0001)                   T
(PID.TID 0000.0001)     ;
(PID.TID 0000.0001) land_snapshot_mnc = /* use MNC for snapshot output */
(PID.TID 0000.0001)                   F
(PID.TID 0000.0001)     ;
(PID.TID 0000.0001) land_mon_stdio = /* use STDOUT for monitor output */
(PID.TID 0000.0001)                   T
(PID.TID 0000.0001)     ;
(PID.TID 0000.0001) land_mon_mnc = /* use MNC for monitor output */
(PID.TID 0000.0001)                   F
(PID.TID 0000.0001)     ;
(PID.TID 0000.0001) land_pickup_write_mnc = /* use MNC for writing pickups */
(PID.TID 0000.0001)                   F
(PID.TID 0000.0001)     ;
(PID.TID 0000.0001) land_pickup_read_mnc = /* use MNC for reading pickups */
(PID.TID 0000.0001)                   F
(PID.TID 0000.0001)     ;
(PID.TID 0000.0001) land_grdLambda = /* Thermal conductivity of the ground (W/m/K)*/
(PID.TID 0000.0001)                 4.200000000000000E-01
(PID.TID 0000.0001)     ;
(PID.TID 0000.0001) land_heatCs = /* Heat capacity of dry soil (J/m3/K) */
(PID.TID 0000.0001)                 1.130000000000000E+06
(PID.TID 0000.0001)     ;
(PID.TID 0000.0001) land_CpWater = /* Heat capacity of water    (J/kg/K) */
(PID.TID 0000.0001)                 4.200000000000000E+03
(PID.TID 0000.0001)     ;
(PID.TID 0000.0001) land_wTauDiff = /* soil moisture diffusion time scale (s) */
(PID.TID 0000.0001)                 1.728000000000000E+05
(PID.TID 0000.0001)     ;
(PID.TID 0000.0001) land_waterCap = /* field capacity per meter of soil (1) */
(PID.TID 0000.0001)                 2.400000000000000E-01
(PID.TID 0000.0001)     ;
(PID.TID 0000.0001) land_fractRunOff= /* fraction of water in excess which run-off */
(PID.TID 0000.0001)                 5.000000000000000E-01
(PID.TID 0000.0001)     ;
(PID.TID 0000.0001) land_rhoLiqW = /* density of liquid water (kg/m3) */
(PID.TID 0000.0001)                 1.000000000000000E+03
(PID.TID 0000.0001)     ;
(PID.TID 0000.0001) land_rhoSnow = /* density of snow (kg/m3) */
(PID.TID 0000.0001)                 3.300000000000000E+02
(PID.TID 0000.0001)     ;
(PID.TID 0000.0001) land_Lfreez = /* Latent heat of freezing (J/kg) */
(PID.TID 0000.0001)                 3.340000000000000E+05
(PID.TID 0000.0001)     ;
(PID.TID 0000.0001) land_hMaxSnow = /* maximum snow-thickness (m) */
(PID.TID 0000.0001)                 1.000000000000000E+01
(PID.TID 0000.0001)     ;
(PID.TID 0000.0001) diffKsnow = /* thermal conductivity of snow (W/m/K) */
(PID.TID 0000.0001)                 3.000000000000000E-01
(PID.TID 0000.0001)     ;
(PID.TID 0000.0001) timeSnowAge = /* snow aging time scale   (s) */
(PID.TID 0000.0001)                 4.320000000000000E+06
(PID.TID 0000.0001)     ;
(PID.TID 0000.0001) hNewSnowAge = /* new snow thickness to refresh snow-age by 1/e */
(PID.TID 0000.0001)                 2.000000000000000E-03
(PID.TID 0000.0001)     ;
(PID.TID 0000.0001) albColdSnow = /* albedo of cold (=dry) new snow */
(PID.TID 0000.0001)                 8.500000000000000E-01
(PID.TID 0000.0001)     ;
(PID.TID 0000.0001) albWarmSnow = /* albedo of warm (=wet) new snow */
(PID.TID 0000.0001)                 7.000000000000000E-01
(PID.TID 0000.0001)     ;
(PID.TID 0000.0001) tempSnowAlbL = /* Temp. transition from ColdSnow to WarmSnow Alb. (oC) */
(PID.TID 0000.0001)                -1.000000000000000E+01
(PID.TID 0000.0001)     ;
(PID.TID 0000.0001) albOldSnow = /* albedo of old snow (snowAge >35.d)*/
(PID.TID 0000.0001)                 5.500000000000000E-01
(PID.TID 0000.0001)     ;
(PID.TID 0000.0001) hAlbSnow = /* snow depth for albedo transition */
(PID.TID 0000.0001)                 3.000000000000000E-01
(PID.TID 0000.0001)     ;
- INPHYS: k,SIG, SIGH,   SIGL,   WVI(1),  WVI(2):
  1   0.0750   0.1500  -2.5903   0.8306   0.5757
  2   0.2500   0.3500  -1.3863   1.4427   0.4854
  3   0.5000   0.6500  -0.6931   2.2818   0.5987
  4   0.7750   0.9000  -0.2549   4.9116   0.7344
  5   0.9500   1.0000  -0.0513   0.0000   0.0377
- INPHYS: end setup WVI.
(PID.TID 0000.0001)  AIM_READ_PHYSPARMS: opening data.aimphys
(PID.TID 0000.0001)  OPEN_COPY_DATA_FILE: opening file data.aimphys
(PID.TID 0000.0001) // =======================================================
(PID.TID 0000.0001) // Parameter file "data.aimphys"
(PID.TID 0000.0001) // =======================================================
(PID.TID 0000.0001) ># AIM physics package parameters:
(PID.TID 0000.0001) >
(PID.TID 0000.0001) >C--   AIM interface parameter (namelist AIM_PARAMS):
(PID.TID 0000.0001) >#     aim_useFMsurfBC :: select surface B.C. from Franco Molteni
(PID.TID 0000.0001) >#     aim_useMMsurfFc :: select Monthly Mean surface forcing (e.g., NCEP)
(PID.TID 0000.0001) >#     aim_surfPotTemp :: surf.Temp input file is in Pot.Temp (aim_useMMsurfFc)
(PID.TID 0000.0001) >#     aim_energPrecip :: account for energy of precipitation (snow & rain temp)
(PID.TID 0000.0001) >#     aim_splitSIOsFx :: compute separately Sea-Ice & Ocean surf. Flux
(PID.TID 0000.0001) >#     aim_LandFile :: file name for Land fraction [0-1]
(PID.TID 0000.0001) >#     aim_MMsufx   :: sufix for all Monthly Mean surface forcing files
(PID.TID 0000.0001) >#     aim_MMsufxLength :: Length of sufix (Monthly Mean surf. forc. files)
(PID.TID 0000.0001) >#     aim_albFile  :: file name for Albedo input file   (F.M. surfBC)
(PID.TID 0000.0001) >#     aim_vegFile  :: file name for vegetation fraction (F.M. surfBC)
(PID.TID 0000.0001) >#     aim_sstFile  :: file name for  Sea.Surf.Temp      (F.M. surfBC)
(PID.TID 0000.0001) >#     aim_lstFile  :: file name for Land.Surf.Temp      (F.M. surfBC)
(PID.TID 0000.0001) >#     aim_oiceFile :: file name for Sea Ice fraction    (F.M. surfBC)
(PID.TID 0000.0001) >#     aim_snowFile :: file name for Snow depth          (F.M. surfBC)
(PID.TID 0000.0001) >#     aim_swcFile  :: file name for Soil Water content  (F.M. surfBC)
(PID.TID 0000.0001) >#     aim_dragStrato :: stratospheric-drag damping time scale (s)
(PID.TID 0000.0001) >#     aim_clrSkyDiag :: compute clear-sky radiation for diagnostics
(PID.TID 0000.0001) >#     aim_taveFreq :: Frequency^-1 for time-average output (s)
(PID.TID 0000.0001) >#     aim_diagFreq :: Frequency^-1 for diagnostic output (s)
(PID.TID 0000.0001) >#     aim_tendFreq :: Frequency^-1 for tendencies output (s)
(PID.TID 0000.0001) > &AIM_PARAMS
(PID.TID 0000.0001) >#  aim_useFMsurfBC=.FALSE.,
(PID.TID 0000.0001) >#  aim_useMMsurfFc=.TRUE.,
(PID.TID 0000.0001) >#  aim_surfPotTemp=.TRUE.,
(PID.TID 0000.0001) >   aim_energPrecip=.TRUE.,
(PID.TID 0000.0001) >   aim_splitSIOsFx=.TRUE.,
(PID.TID 0000.0001) >   aim_LandFile= 'landFrc.cpl_FM.bin',
(PID.TID 0000.0001) >   aim_albFile = 'albedo_cs32.bin',
(PID.TID 0000.0001) >   aim_vegFile = 'vegetFrc.cpl_FM.bin',
(PID.TID 0000.0001) >   aim_sstFile = 'seaSurfT.cpl_FM.bin',
(PID.TID 0000.0001) >   aim_lstFile = 'lndSurfT.cpl_FM.bin',
(PID.TID 0000.0001) >   aim_oiceFile= 'seaIce.cpl3FM.bin',
(PID.TID 0000.0001) >   aim_snowFile= 'snowDepth.cpl_FM.bin',
(PID.TID 0000.0001) >   aim_swcFile = 'soilMoist.cpl_FM.bin',
(PID.TID 0000.0001) >   aim_dragStrato= 2592000.,
(PID.TID 0000.0001) >#  aim_clrSkyDiag=.TRUE.,
(PID.TID 0000.0001) >#  aim_diagFreq=3600.,
(PID.TID 0000.0001) > /
(PID.TID 0000.0001) >
(PID.TID 0000.0001) >#--   Physical constants
(PID.TID 0000.0001) >#       P0    = reference pressure                 [Pa=N/m2]
(PID.TID 0000.0001) >#       GG    = gravity accel.                     [m/s2]
(PID.TID 0000.0001) >#       RD    = gas constant for dry air           [J/kg/K]
(PID.TID 0000.0001) >#       CP    = specific heat at constant pressure [J/kg/K]
(PID.TID 0000.0001) >#       ALHC  = latent heat of condensation        [J/g]
(PID.TID 0000.0001) >#       ALHF  = latent heat of freezing            [J/g]
(PID.TID 0000.0001) >#       SBC   = Stefan-Boltzmann constant
(PID.TID 0000.0001) >#     rainCP  = heat capacity of liquid water      [J/g/K]
(PID.TID 0000.0001) >#     tFreeze = freezing temperature of pure water [K]
(PID.TID 0000.0001) >
(PID.TID 0000.0001) >#--   Constants for forcing fields (namelist AIM_PAR_FOR):
(PID.TID 0000.0001) >#      SOLC   = Solar constant (area averaged) in W/m^2
(PID.TID 0000.0001) >#      ALBSEA = Albedo over sea
(PID.TID 0000.0001) >#      ALBICE = Albedo over sea ice (for ice fraction = 1)
(PID.TID 0000.0001) >#      ALBSN  = Albedo over snow (for snow depth > SDALB)
(PID.TID 0000.0001) >#      SDALB  = Snow depth (mm water) corresponding to maximum albedo
(PID.TID 0000.0001) >#      SWCAP  = Soil wetness at field capacity (volume fraction)
(PID.TID 0000.0001) >#      SWWIL  = Soil wetness at wilting point  (volume fraction)
(PID.TID 0000.0001) >#      hSnowWetness :: snow depth (m) corresponding to maximum wetness
(PID.TID 0000.0001) > &AIM_PAR_FOR
(PID.TID 0000.0001) > /
(PID.TID 0000.0001) >
(PID.TID 0000.0001) >#--   Constants for surface fluxes (namelist AIM_PAR_SFL):
(PID.TID 0000.0001) >#      FWIND0 = ratio of near-sfc wind to lowest-level wind
(PID.TID 0000.0001) >#      FTEMP0 = weight for near-sfc temperature extrapolation (0-1) :
(PID.TID 0000.0001) >#               1 : linear extrapolation from two lowest levels
(PID.TID 0000.0001) >#               0 : constant potential temperature ( = lowest level)
(PID.TID 0000.0001) >#      FHUM0  = weight for near-sfc specific humidity extrapolation (0-1) :
(PID.TID 0000.0001) >#               1 : extrap. with constant relative hum. ( = lowest level)
(PID.TID 0000.0001) >#               0 : constant specific hum. ( = lowest level)
(PID.TID 0000.0001) >#      CDL    = drag coefficient for momentum over land
(PID.TID 0000.0001) >#      CDS    = drag coefficient for momentum over sea
(PID.TID 0000.0001) >#      CHL    = heat exchange coefficient over land
(PID.TID 0000.0001) >#      CHS    = heat exchange coefficient over sea
(PID.TID 0000.0001) >#      VGUST  = wind speed for sub-grid-scale gusts
(PID.TID 0000.0001) >#      CTDAY  = daily-cycle correction (dTskin/dSSRad)
(PID.TID 0000.0001) >#      DTHETA = Potential temp. gradient for stability correction
(PID.TID 0000.0001) >#      dTstab = potential temp. increment for stability function derivative
(PID.TID 0000.0001) >#      FSTAB  = Amplitude of stability correction (fraction)
(PID.TID 0000.0001) >#      HDRAG  = Height scale for orographic correction
(PID.TID 0000.0001) >#      FHDRAG = Amplitude of orographic correction (fraction)
(PID.TID 0000.0001) > &AIM_PAR_SFL
(PID.TID 0000.0001) >#  FTEMP0 = 0.,
(PID.TID 0000.0001) >#  FHUM0  = 0.,
(PID.TID 0000.0001) >#  dTstab = 0.,
(PID.TID 0000.0001) > /
(PID.TID 0000.0001) >
(PID.TID 0000.0001) >#--   Convection constants (namelist AIM_PAR_CNV):
(PID.TID 0000.0001) >#      PSMIN  = minimum (norm.) sfc. pressure for the occurrence of convection
(PID.TID 0000.0001) >#      TRCNV  = time of relaxation (in hours) towards reference state
(PID.TID 0000.0001) >#      QBL    = specific hum. threshold in the boundary layer
(PID.TID 0000.0001) >#      RHBL   = relative hum. threshold in the boundary layer
(PID.TID 0000.0001) >#      RHIL   = rel. hum. threshold in intermed. layers for secondary mass flux
(PID.TID 0000.0001) >#      ENTMAX = max. entrainment as a fraction of cloud-base mass flux
(PID.TID 0000.0001) >#      SMF    = ratio between secondary and primary mass flux at cloud-base
(PID.TID 0000.0001) > &AIM_PAR_CNV
(PID.TID 0000.0001) > /
(PID.TID 0000.0001) >
(PID.TID 0000.0001) >#--   Constants for large-scale condensation (namelist AIM_PAR_LSC):
(PID.TID 0000.0001) >#      TRLSC  = Relaxation time (in hours) for specific humidity
(PID.TID 0000.0001) >#      RHLSC  = Maximum relative humidity threshold (at sigma=1)
(PID.TID 0000.0001) >#      DRHLSC = Vertical range of relative humidity threshold
(PID.TID 0000.0001) >#      QSMAX  = used to define the maximum latent heat release
(PID.TID 0000.0001) > &AIM_PAR_LSC
(PID.TID 0000.0001) > /
(PID.TID 0000.0001) >
(PID.TID 0000.0001) >#--   Radiation constants (namelist AIM_PAR_RAD):
(PID.TID 0000.0001) >#      RHCL1  = relative hum. corresponding to cloud cover = 0
(PID.TID 0000.0001) >#      RHCL2  = relative hum. corresponding to cloud cover = 1
(PID.TID 0000.0001) >#      QACL1  = specific hum. threshold for cloud cover in the upper troposphere
(PID.TID 0000.0001) >#      QACL2  = specific hum. threshold for cloud cover in the upper troposphere
(PID.TID 0000.0001) >#      ALBCL  = cloud albedo (for cloud cover = 1)
(PID.TID 0000.0001) >#      EPSSW  = fraction of incoming solar radiation absorbed by ozone
(PID.TID 0000.0001) >#      EPSLW  = fraction of surface LW radiation emitted directly to space
(PID.TID 0000.0001) >#      EMISFC = longwave surface emissivity
(PID.TID 0000.0001) >#--:            shortwave absorptivities (for dp = 10^5 Pa) :
(PID.TID 0000.0001) >#      ABSDRY = abs. of dry air      (visible band)
(PID.TID 0000.0001) >#      ABSAER = abs. of aerosols     (visible band)
(PID.TID 0000.0001) >#      ABSWV1 = abs. of water vapour (visible band, for dq = 1 g/kg)
(PID.TID 0000.0001) >#      ABSWV2 = abs. of water vapour (near IR band, for dq = 1 g/kg)
(PID.TID 0000.0001) >#      ABSCL1 = abs. of clouds       (visible band, constant term)
(PID.TID 0000.0001) >#      ABSCL2 = abs. of clouds       (visible band, for dw = 1 g/kg)
(PID.TID 0000.0001) >#--:            longwave absorptivities (per dp = 10^5 Pa) :
(PID.TID 0000.0001) >#      ABLWIN = abs. of air in "window" band
(PID.TID 0000.0001) >#      ABLCO2 = abs. of air in CO2 band
(PID.TID 0000.0001) >#      ABLWV1 = abs. of water vapour in H2O band 1 (weak),   for dq = 1 g/kg
(PID.TID 0000.0001) >#      ABLWV2 = abs. of water vapour in H2O band 2 (strong), for dq = 1 g/kg
(PID.TID 0000.0001) >#      ABLCL1 = abs. of clouds       in "window" band,       constant term
(PID.TID 0000.0001) >#      ABLCL2 = abs. of clouds       in "window" band,       for dw = 1 g/kg
(PID.TID 0000.0001) > &AIM_PAR_RAD
(PID.TID 0000.0001) > /
(PID.TID 0000.0001) >
(PID.TID 0000.0001) >#--   Constants for vertical dif. and sh. conv. (namelist AIM_PAR_VDI):
(PID.TID 0000.0001) >#      TRSHC  = relaxation time (in hours) for shallow convection
(PID.TID 0000.0001) >#      TRVDI  = relaxation time (in hours) for moisture diffusion
(PID.TID 0000.0001) >#      TRVDS  = relaxation time (in hours) for super-adiab. conditions
(PID.TID 0000.0001) >#      RHGRAD = maximum gradient of relative humidity (d_RH/d_sigma)
(PID.TID 0000.0001) >#      SEGRAD = minimum gradient of dry static energy (d_DSE/d_phi)
(PID.TID 0000.0001) > &AIM_PAR_VDI
(PID.TID 0000.0001) > /
(PID.TID 0000.0001) >
(PID.TID 0000.0001) 
(PID.TID 0000.0001)  AIM_READ_PHYSPARMS: finished reading data.aimphys
(PID.TID 0000.0001) 
(PID.TID 0000.0001) // ===================================
(PID.TID 0000.0001) // AIM physics parameters :
(PID.TID 0000.0001) // ===================================
(PID.TID 0000.0001) useLand =   /* use Land package for surf.BC over land  */
(PID.TID 0000.0001)                   T
(PID.TID 0000.0001)     ;
(PID.TID 0000.0001) aim_useFMsurfBC =   /* F.Molteni surf. BC scheme on/off flag */
(PID.TID 0000.0001)                   T
(PID.TID 0000.0001)     ;
(PID.TID 0000.0001) aim_useMMsurfFc =   /* Monthly Mean surf. Forcing on/off flag */
(PID.TID 0000.0001)                   F
(PID.TID 0000.0001)     ;
(PID.TID 0000.0001) aim_surfForc_TimePeriod = /* Length of forcing time period (s) */
(PID.TID 0000.0001)                 2.592000000000000E+06
(PID.TID 0000.0001)     ;
(PID.TID 0000.0001) aim_surfForc_NppCycle   = /* Number of time period per Cycle */
(PID.TID 0000.0001)                      12
(PID.TID 0000.0001)     ;
(PID.TID 0000.0001) aim_surfForc_TransRatio = /* transition ratio from one month to the next */
(PID.TID 0000.0001)                 1.000000000000000E+00
(PID.TID 0000.0001)     ;
(PID.TID 0000.0001) aim_surfPotTemp =   /* Surf Temp file in Pot.Temp on/off flag */
(PID.TID 0000.0001)                   F
(PID.TID 0000.0001)     ;
(PID.TID 0000.0001) aim_energPrecip = /* account for energy of precip. on/off flag */
(PID.TID 0000.0001)                   T
(PID.TID 0000.0001)     ;
(PID.TID 0000.0001) aim_splitSIOsFx = /* separate Sea-Ice & Ocean Flux on/off flag */
(PID.TID 0000.0001)                   T
(PID.TID 0000.0001)     ;
(PID.TID 0000.0001) aim_dragStrato= /* stratospheric-drag damping time scale (s) */
(PID.TID 0000.0001)                 2.592000000000000E+06
(PID.TID 0000.0001)     ;
(PID.TID 0000.0001) aim_clrSkyDiag = /* do clear-sky radiation diagnostics */
(PID.TID 0000.0001)                   F
(PID.TID 0000.0001)     ;
(PID.TID 0000.0001) aim_taveFreq =   /* Frequency^-1 for time-Aver. output (s) */
(PID.TID 0000.0001)                 2.592000000000000E+06
(PID.TID 0000.0001)     ;
(PID.TID 0000.0001) aim_diagFreq =   /* Frequency^-1 for diagnostic output (s) */
(PID.TID 0000.0001)                 2.592000000000000E+06
(PID.TID 0000.0001)     ;
(PID.TID 0000.0001) aim_tendFreq =   /* Frequency^-1 for tendencies output (s) */
(PID.TID 0000.0001)                 0.000000000000000E+00
(PID.TID 0000.0001)     ;
(PID.TID 0000.0001) aim_selectOceAlbedo =   /* Ocean albedo(latitude) flag */
(PID.TID 0000.0001)                       0
(PID.TID 0000.0001)     ;
(PID.TID 0000.0001) AIM_FOR:   SOLC =   /* Solar constant (area averaged) in W/m2 */
(PID.TID 0000.0001)                 3.420000000000000E+02
(PID.TID 0000.0001)     ;
(PID.TID 0000.0001) AIM_FOR:  OBLIQ =   /* Obliquity (degree) used with ALLOW_INSOLATION */
(PID.TID 0000.0001)                 2.345000000000000E+01
(PID.TID 0000.0001)     ;
(PID.TID 0000.0001) AIM_FOR: ALBSEA =   /* Albedo over sea [0-1]      */
(PID.TID 0000.0001)                 7.000000000000001E-02
(PID.TID 0000.0001)     ;
(PID.TID 0000.0001) AIM_FOR: ALBICE =   /* Albedo over sea ice (for ice fraction =1) */
(PID.TID 0000.0001)                 6.000000000000000E-01
(PID.TID 0000.0001)     ;
(PID.TID 0000.0001) AIM_FOR:  ALBSN =   /* Albedo over snow (for snow depth > SDALB) */
(PID.TID 0000.0001)                 6.000000000000000E-01
(PID.TID 0000.0001)     ;
(PID.TID 0000.0001) AIM_FOR:  SDALB =   /* Snow depth (mm H2O) corresp. maximum albedo */
(PID.TID 0000.0001)                 6.000000000000000E+01
(PID.TID 0000.0001)     ;
(PID.TID 0000.0001) AIM_FOR:  SWCAP =   /* Soil wetness at field capacity (Vol.fract.) */
(PID.TID 0000.0001)                 3.000000000000000E-01
(PID.TID 0000.0001)     ;
(PID.TID 0000.0001) AIM_FOR:  SWWIL =   /* Soil wetness at wilting point  (Vol.fract.) */
(PID.TID 0000.0001)                 1.700000000000000E-01
(PID.TID 0000.0001)     ;
(PID.TID 0000.0001) AIM_FOR: hSnowWetness=   /* snow depth corresp. maximum wetness (m) */
(PID.TID 0000.0001)                 1.000000000000000E-02
(PID.TID 0000.0001)     ;
(PID.TID 0000.0001) AIM_SFL: FWIND0 =   /* ratio of near-sfc wind to lowest-level wind */
(PID.TID 0000.0001)                 6.000000000000000E-01
(PID.TID 0000.0001)     ;
(PID.TID 0000.0001) AIM_SFL: FTEMP0 =  /* weight for near-sfc temp. extrapolation (0-1)*/
(PID.TID 0000.0001)                 1.000000000000000E+00
(PID.TID 0000.0001)     ;
(PID.TID 0000.0001) AIM_SFL:  FHUM0 =  /* weight for near-sfc spec.humid. extrap. (0-1)*/
(PID.TID 0000.0001)                 1.000000000000000E+00
(PID.TID 0000.0001)     ;
(PID.TID 0000.0001) AIM_SFL:    CDL =   /* drag coefficient for momentum over land */
(PID.TID 0000.0001)                 1.800000000000000E-03
(PID.TID 0000.0001)     ;
(PID.TID 0000.0001) AIM_SFL:    CDS =   /* drag coefficient for momentum over sea  */
(PID.TID 0000.0001)                 8.000000000000000E-04
(PID.TID 0000.0001)     ;
(PID.TID 0000.0001) AIM_SFL:    CHL =   /* heat exchange coefficient over land */
(PID.TID 0000.0001)                 1.200000000000000E-03
(PID.TID 0000.0001)     ;
(PID.TID 0000.0001) AIM_SFL:    CHS =   /* heat exchange coefficient over sea  */
(PID.TID 0000.0001)                 8.000000000000000E-04
(PID.TID 0000.0001)     ;
(PID.TID 0000.0001) AIM_SFL:  VGUST =   /* wind speed [m/s] for sub-grid-scale gusts */
(PID.TID 0000.0001)                 5.000000000000000E+00
(PID.TID 0000.0001)     ;
(PID.TID 0000.0001) AIM_SFL:  CTDAY =   /* daily-cycle correction (dTskin/dSSRad) */
(PID.TID 0000.0001)                 1.000000000000000E-02
(PID.TID 0000.0001)     ;
(PID.TID 0000.0001) AIM_SFL: DTHETA =   /* Pot.Temp. gradient for stability correction */
(PID.TID 0000.0001)                 3.000000000000000E+00
(PID.TID 0000.0001)     ;
(PID.TID 0000.0001) AIM_SFL: dTstab =   /* Pot.Temp. increment for stab.funct. derivative */
(PID.TID 0000.0001)                 1.000000000000000E+00
(PID.TID 0000.0001)     ;
(PID.TID 0000.0001) AIM_SFL:  FSTAB =   /* Amplitude of stability correction (fract.) */
(PID.TID 0000.0001)                 6.700000000000000E-01
(PID.TID 0000.0001)     ;
(PID.TID 0000.0001) AIM_SFL:  HDRAG =   /* Height scale for orographic correction */
(PID.TID 0000.0001)                 2.000000000000000E+03
(PID.TID 0000.0001)     ;
(PID.TID 0000.0001) AIM_SFL: FHDRAG =   /* Amplitude of orographic correction (fract.)*/
(PID.TID 0000.0001)                 8.000000000000000E-01
(PID.TID 0000.0001)     ;
(PID.TID 0000.0001) AIM_CNV:  PSMIN =   /* min norm.sfc.P. for occurrence of convect. */
(PID.TID 0000.0001)                 7.000000000000000E-01
(PID.TID 0000.0001)     ;
(PID.TID 0000.0001) AIM_CNV:  TRCNV =   /* time of relaxation [h] towards ref state */
(PID.TID 0000.0001)                 6.000000000000000E+00
(PID.TID 0000.0001)     ;
(PID.TID 0000.0001) AIM_CNV:    QBL =   /* specific hum. threshold in the Bound.layer */
(PID.TID 0000.0001)                 1.500000000000000E+01
(PID.TID 0000.0001)     ;
(PID.TID 0000.0001) AIM_CNV:   RHBL =   /* relative hum. threshold in the Bound.layer */
(PID.TID 0000.0001)                 8.000000000000000E-01
(PID.TID 0000.0001)     ;
(PID.TID 0000.0001) AIM_CNV:   RHIL =   /* rel.hum. threshold (intern) for 2nd mass.Flx*/
(PID.TID 0000.0001)                 7.000000000000000E-01
(PID.TID 0000.0001)     ;
(PID.TID 0000.0001) AIM_CNV: ENTMAX =   /* time of relaxation [h] towards neutral eq. */
(PID.TID 0000.0001)                 5.000000000000000E-01
(PID.TID 0000.0001)     ;
(PID.TID 0000.0001) AIM_CNV:    SMF =   /* ratio 2ndary/primary mass.Flx at cloud-base*/
(PID.TID 0000.0001)                 5.000000000000000E-01
(PID.TID 0000.0001)     ;
(PID.TID 0000.0001) AIM_LSC:  TRLSC =   /* relaxation time [h] for supersat. spec.hum. */
(PID.TID 0000.0001)                 4.000000000000000E+00
(PID.TID 0000.0001)     ;
(PID.TID 0000.0001) AIM_LSC:  RHLSC =   /* Max rel.humidity threshold (at sigma=1) */
(PID.TID 0000.0001)                 9.000000000000000E-01
(PID.TID 0000.0001)     ;
(PID.TID 0000.0001) AIM_LSC: DRHLSC =   /* Vertical range of rel.humidity threshold */
(PID.TID 0000.0001)                 1.000000000000000E-01
(PID.TID 0000.0001)     ;
(PID.TID 0000.0001) AIM_LSC:  QSMAX =   /* Define the maximum latent heat release */
(PID.TID 0000.0001)                 5.000000000000000E+01
(PID.TID 0000.0001)     ;
(PID.TID 0000.0001) AIM_RAD:  RHCL1 =   /*  rel.hum. corresponding to cloud cover = 0 */
(PID.TID 0000.0001)                 4.500000000000000E-01
(PID.TID 0000.0001)     ;
(PID.TID 0000.0001) AIM_RAD:  RHCL2 =   /*  rel.hum. corresponding to cloud cover = 1 */
(PID.TID 0000.0001)                 8.500000000000000E-01
(PID.TID 0000.0001)     ;
(PID.TID 0000.0001) AIM_RAD:  QACL1 =   /* spec.hum. threshold for cloud, upper trop. */
(PID.TID 0000.0001)                 1.000000000000000E-01
(PID.TID 0000.0001)     ;
(PID.TID 0000.0001) AIM_RAD:  QACL2 =   /* spec.hum. threshold for cloud, upper trop. */
(PID.TID 0000.0001)                 1.000000000000000E+00
(PID.TID 0000.0001)     ;
(PID.TID 0000.0001) AIM_RAD:  ALBCL =   /*  cloud albedo (for cloud cover = 1) */
(PID.TID 0000.0001)                 4.000000000000000E-01
(PID.TID 0000.0001)     ;
(PID.TID 0000.0001) AIM_RAD:  EPSSW =   /*  fract. of inc.solar rad. absorbed by ozone */
(PID.TID 0000.0001)                 1.500000000000000E-02
(PID.TID 0000.0001)     ;
(PID.TID 0000.0001) AIM_RAD:  EPSLW =   /*  fract. of sfc LW emitted directly to space */
(PID.TID 0000.0001)                 0.000000000000000E+00
(PID.TID 0000.0001)     ;
(PID.TID 0000.0001) AIM_RAD: EMISFC =   /*  longwave surface emissivity */
(PID.TID 0000.0001)                 9.800000000000000E-01
(PID.TID 0000.0001)     ;
(PID.TID 0000.0001)  AIM_RAD : ShortWave absorptivities (for dp = 10^5 Pa) :
(PID.TID 0000.0001) AIM_RAD: ABSDRY =   /* abs. of dry air (visible band) */
(PID.TID 0000.0001)                 3.300000000000000E-02
(PID.TID 0000.0001)     ;
(PID.TID 0000.0001) AIM_RAD: ABSAER =   /* abs. of aerosols (visible band) */
(PID.TID 0000.0001)                 3.300000000000000E-02
(PID.TID 0000.0001)     ;
(PID.TID 0000.0001) AIM_RAD: ABSWV1 =   /* abs. of water vap. (vis. band)(/dq, 1g/kg) */
(PID.TID 0000.0001)                 2.200000000000000E-02
(PID.TID 0000.0001)     ;
(PID.TID 0000.0001) AIM_RAD: ABSWV2 =   /* abs. of water vap.(near IR bd)(/dq, 1g/kg) */
(PID.TID 0000.0001)                 1.500000000000000E+01
(PID.TID 0000.0001)     ;
(PID.TID 0000.0001) AIM_RAD: ABSCL1 =   /* abs. of clouds (vis.band)(constant term) */
(PID.TID 0000.0001)                 0.000000000000000E+00
(PID.TID 0000.0001)     ;
(PID.TID 0000.0001) AIM_RAD: ABSCL2 =   /* abs. of clouds (vis.band) (/dw, 1g/kg) */
(PID.TID 0000.0001)                 1.000000000000000E-02
(PID.TID 0000.0001)     ;
(PID.TID 0000.0001) AIM_RAD: ABLWIN =   /* abs. of air in "window" band */
(PID.TID 0000.0001)                 7.000000000000000E-01
(PID.TID 0000.0001)     ;
(PID.TID 0000.0001) AIM_RAD: ABLCO2 =   /* abs. of air in CO2 band */
(PID.TID 0000.0001)                 4.000000000000000E+00
(PID.TID 0000.0001)     ;
(PID.TID 0000.0001) AIM_RAD: ABLWV1 =   /* abs. of Water vap. H2O bd-1(weak)(/dq,1g/kg)*/
(PID.TID 0000.0001)                 7.000000000000000E-01
(PID.TID 0000.0001)     ;
(PID.TID 0000.0001) AIM_RAD: ABLWV2 =   /* abs. of W. vap., H2O bd-2(strong)(/dq,1g/kg)*/
(PID.TID 0000.0001)                 5.000000000000000E+01
(PID.TID 0000.0001)     ;
(PID.TID 0000.0001) AIM_RAD: ABLCL1 =   /* abs. of clouds in window band (const term) */
(PID.TID 0000.0001)                 1.200000000000000E+01
(PID.TID 0000.0001)     ;
(PID.TID 0000.0001) AIM_RAD: ABLCL2 =   /* abs. of clouds in window band (/dw, 1g/kg) */
(PID.TID 0000.0001)                 0.000000000000000E+00
(PID.TID 0000.0001)     ;
(PID.TID 0000.0001) AIM_VDI:  TRSHC =   /* relaxation time [h] for shallow convection */
(PID.TID 0000.0001)                 2.400000000000000E+01
(PID.TID 0000.0001)     ;
(PID.TID 0000.0001) AIM_VDI:  TRVDI =   /* relaxation time [h] for moisture diffusion */
(PID.TID 0000.0001)                 4.000000000000000E+01
(PID.TID 0000.0001)     ;
(PID.TID 0000.0001) AIM_VDI:  TRVDS =   /* relaxation time [h] for super-adiab. cond. */
(PID.TID 0000.0001)                 5.000000000000000E+00
(PID.TID 0000.0001)     ;
(PID.TID 0000.0001) AIM_VDI: RHGRAD =   /* max gradient of rel.humidity (d_RH/d_sigma)*/
(PID.TID 0000.0001)                 5.000000000000000E-01
(PID.TID 0000.0001)     ;
(PID.TID 0000.0001) AIM_VDI: SEGRAD =   /* max grad. of dry static Energy(d_DSE/d_phi)*/
(PID.TID 0000.0001)                 1.000000000000000E-01
(PID.TID 0000.0001)     ;
(PID.TID 0000.0001)  MDS_READ_FIELD: opening global file: landFrc.cpl_FM.bin
(PID.TID 0000.0001) ------------------------------------------------------------
(PID.TID 0000.0001) DIAGNOSTICS_SET_LEVELS: done
(PID.TID 0000.0001)  Total Nb of available Diagnostics: ndiagt=   261
(PID.TID 0000.0001)  write list of available Diagnostics to file: available_diagnostics.log
(PID.TID 0000.0001) SETDIAG: Allocate  1 x  1 Levels for Diagnostic #    23 ETAN
(PID.TID 0000.0001) SETDIAG: Allocate  1 x  1 Levels for Diagnostic #    24 ETANSQ
(PID.TID 0000.0001) SETDIAG: Allocate  1 x  1 Levels for Diagnostic #    25 DETADT2
(PID.TID 0000.0001) SETDIAG: Allocate  5 x  1 Levels for Diagnostic #    29 UVEL
(PID.TID 0000.0001) SETDIAG: Allocate  5 x  1 Levels for Diagnostic #    30 VVEL
(PID.TID 0000.0001) SETDIAG: Allocate  5 x  1 Levels for Diagnostic #    31 WVEL
(PID.TID 0000.0001) SETDIAG: Allocate  5 x  1 Levels for Diagnostic #    26 THETA
(PID.TID 0000.0001) SETDIAG: Allocate  5 x  1 Levels for Diagnostic #    27 SALT
(PID.TID 0000.0001) SETDIAG: Allocate  5 x  1 Levels for Diagnostic #    34 UVELSQ
(PID.TID 0000.0001) SETDIAG: Allocate  5 x  1 Levels for Diagnostic #    35 VVELSQ
(PID.TID 0000.0001) SETDIAG: Allocate  5 x  1 Levels for Diagnostic #    36 WVELSQ
(PID.TID 0000.0001) SETDIAG: Allocate  5 x  1 Levels for Diagnostic #    32 THETASQ
(PID.TID 0000.0001) SETDIAG: Allocate  5 x  1 Levels for Diagnostic #    40 UV_VEL_Z
(PID.TID 0000.0001) SETDIAG: Allocate  5 x  1 Levels for Diagnostic #    69 PHIHYD
(PID.TID 0000.0001) SETDIAG: Allocate  5 x  1 Levels for Diagnostic #    70 PHIHYDSQ
(PID.TID 0000.0001) SETDIAG: Allocate  5 x  1 Levels for Diagnostic #    43 UVELMASS
(PID.TID 0000.0001) SETDIAG: Allocate  5 x  1 Levels for Diagnostic #    44 VVELMASS
(PID.TID 0000.0001) SETDIAG: Allocate  5 x  1 Levels for Diagnostic #    48 UTHMASS
(PID.TID 0000.0001) SETDIAG: Allocate  5 x  1 Levels for Diagnostic #    49 VTHMASS
(PID.TID 0000.0001) SETDIAG: Allocate  5 x  1 Levels for Diagnostic #    56 WVELTH
(PID.TID 0000.0001) SETDIAG: Allocate  5 x  1 Levels for Diagnostic #    51 USLTMASS
(PID.TID 0000.0001) SETDIAG: Allocate  5 x  1 Levels for Diagnostic #    52 VSLTMASS
(PID.TID 0000.0001) SETDIAG: Allocate  5 x  1 Levels for Diagnostic #    59 WVELSLT
(PID.TID 0000.0001) SETDIAG: Allocate  1 x  1 Levels for Diagnostic #   256 UFLUX
(PID.TID 0000.0001) SETDIAG: Allocate  1 x  1 Levels for Diagnostic #   257 VFLUX
(PID.TID 0000.0001) SETDIAG: Allocate  1 x  1 Levels for Diagnostic #   230 TSR
(PID.TID 0000.0001) SETDIAG: Allocate  1 x  1 Levels for Diagnostic #   231 OLR
(PID.TID 0000.0001) SETDIAG: Allocate  1 x  1 Levels for Diagnostic #   232 RADSWG
(PID.TID 0000.0001) SETDIAG: Allocate  1 x  1 Levels for Diagnostic #   233 RADLWG
(PID.TID 0000.0001) SETDIAG: Allocate  1 x  1 Levels for Diagnostic #   234 HFLUX
(PID.TID 0000.0001) SETDIAG: Allocate  1 x  1 Levels for Diagnostic #   235 EVAP
(PID.TID 0000.0001) SETDIAG: Allocate  1 x  1 Levels for Diagnostic #   236 PRECON
(PID.TID 0000.0001) SETDIAG: Allocate  1 x  1 Levels for Diagnostic #   237 PRECLS
(PID.TID 0000.0001) SETDIAG: Allocate  1 x  1 Levels for Diagnostic #   238 CLDFRC
(PID.TID 0000.0001) SETDIAG: Allocate  1 x  1 Levels for Diagnostic #   239 CLDPRS
(PID.TID 0000.0001) - NOTE - SETDIAG: Counter-mate #   238 CLDFRC   is already set
(PID.TID 0000.0001) SETDIAG: Allocate  1 x  1 Levels for Diagnostic #   240 CLDMAS
(PID.TID 0000.0001) SETDIAG: Allocate  1 x  1 Levels for Diagnostic #   241 DRAG
(PID.TID 0000.0001) SETDIAG: Allocate  1 x  1 Levels for Diagnostic #   242 WINDS
(PID.TID 0000.0001) SETDIAG: Allocate  1 x  1 Levels for Diagnostic #   243 TS
(PID.TID 0000.0001) SETDIAG: Allocate  1 x  1 Levels for Diagnostic #   244 QS
(PID.TID 0000.0001) SETDIAG: Allocate  1 x  1 Levels for Diagnostic #   245 ENPREC
(PID.TID 0000.0001) SETDIAG: Allocate  1 x  1 Levels for Diagnostic #   246 ALBVISDF
(PID.TID 0000.0001) SETDIAG: Allocate  1 x  1 Levels for Diagnostic #   260 DTSIMPL
(PID.TID 0000.0001) SETDIAG: Allocate  5 x  1 Levels for Diagnostic #    28 RELHUM
(PID.TID 0000.0001) SETDIAG: Allocate  5 x  1 Levels for Diagnostic #   220 DIABT
(PID.TID 0000.0001) SETDIAG: Allocate  5 x  1 Levels for Diagnostic #   221 DIABQ
(PID.TID 0000.0001) SETDIAG: Allocate  5 x  1 Levels for Diagnostic #   222 RADSW
(PID.TID 0000.0001) SETDIAG: Allocate  5 x  1 Levels for Diagnostic #   223 RADLW
(PID.TID 0000.0001) SETDIAG: Allocate  5 x  1 Levels for Diagnostic #   224 DTCONV
(PID.TID 0000.0001) SETDIAG: Allocate  5 x  1 Levels for Diagnostic #   226 DTLS
(PID.TID 0000.0001) SETDIAG: Allocate  5 x  1 Levels for Diagnostic #   227 DQCONV
(PID.TID 0000.0001) SETDIAG: Allocate  5 x  1 Levels for Diagnostic #   229 DQLS
(PID.TID 0000.0001) SETDIAG: Allocate  1 x  1 Levels for Diagnostic #   176 SI_Fract
(PID.TID 0000.0001) SETDIAG: Allocate  1 x  1 Levels for Diagnostic #   177 SI_Thick
(PID.TID 0000.0001) - NOTE - SETDIAG: Counter-mate #   176 SI_Fract is already set
(PID.TID 0000.0001) SETDIAG: Allocate  1 x  1 Levels for Diagnostic #   178 SI_SnowH
(PID.TID 0000.0001) - NOTE - SETDIAG: Counter-mate #   176 SI_Fract is already set
(PID.TID 0000.0001) SETDIAG: Allocate  1 x  1 Levels for Diagnostic #   179 SI_Tsrf
(PID.TID 0000.0001) - NOTE - SETDIAG: Counter-mate #   176 SI_Fract is already set
(PID.TID 0000.0001) SETDIAG: Allocate  1 x  1 Levels for Diagnostic #   180 SI_Tice1
(PID.TID 0000.0001) - NOTE - SETDIAG: Counter-mate #   176 SI_Fract is already set
(PID.TID 0000.0001) SETDIAG: Allocate  1 x  1 Levels for Diagnostic #   181 SI_Tice2
(PID.TID 0000.0001) - NOTE - SETDIAG: Counter-mate #   176 SI_Fract is already set
(PID.TID 0000.0001) SETDIAG: Allocate  1 x  1 Levels for Diagnostic #   182 SI_Qice1
(PID.TID 0000.0001) - NOTE - SETDIAG: Counter-mate #   177 SI_Thick is already set
(PID.TID 0000.0001) SETDIAG: Allocate  1 x  1 Levels for Diagnostic #   183 SI_Qice2
(PID.TID 0000.0001) - NOTE - SETDIAG: Counter-mate #   177 SI_Thick is already set
(PID.TID 0000.0001) SETDIAG: Allocate  1 x  1 Levels for Diagnostic #   184 SIsnwAge
(PID.TID 0000.0001) SETDIAG: Allocate  1 x  1 Levels for Diagnostic #   186 SIsnwPrc
(PID.TID 0000.0001) - NOTE - SETDIAG: Counter-mate #   176 SI_Fract is already set
(PID.TID 0000.0001) SETDIAG: Allocate  1 x  1 Levels for Diagnostic #   185 SIalbedo
(PID.TID 0000.0001) - NOTE - SETDIAG: Counter-mate #   176 SI_Fract is already set
(PID.TID 0000.0001) SETDIAG: Allocate  1 x  1 Levels for Diagnostic #   189 SIflx2oc
(PID.TID 0000.0001) SETDIAG: Allocate  1 x  1 Levels for Diagnostic #   190 SIfrw2oc
(PID.TID 0000.0001) SETDIAG: Allocate  1 x  1 Levels for Diagnostic #   191 SIsaltFx
(PID.TID 0000.0001)   space allocated for all diagnostics:     182 levels
(PID.TID 0000.0001)   set mate pointer for diag #    29  UVEL     , Parms: UUR     MR , mate:    30
(PID.TID 0000.0001)   set mate pointer for diag #    30  VVEL     , Parms: VVR     MR , mate:    29
(PID.TID 0000.0001)   set mate pointer for diag #    34  UVELSQ   , Parms: UURP    MR , mate:    35
(PID.TID 0000.0001)   set mate pointer for diag #    35  VVELSQ   , Parms: VVRP    MR , mate:    34
(PID.TID 0000.0001)   set mate pointer for diag #    40  UV_VEL_Z , Parms: UZR     MR , mate:    40
(PID.TID 0000.0001)   set mate pointer for diag #    43  UVELMASS , Parms: UUr     MR , mate:    44
(PID.TID 0000.0001)   set mate pointer for diag #    44  VVELMASS , Parms: VVr     MR , mate:    43
(PID.TID 0000.0001)   set mate pointer for diag #    48  UTHMASS  , Parms: UUr     MR , mate:    49
(PID.TID 0000.0001)   set mate pointer for diag #    49  VTHMASS  , Parms: VVr     MR , mate:    48
(PID.TID 0000.0001)   set mate pointer for diag #    51  USLTMASS , Parms: UUr     MR , mate:    52
(PID.TID 0000.0001)   set mate pointer for diag #    52  VSLTMASS , Parms: VVr     MR , mate:    51
(PID.TID 0000.0001)   set mate pointer for diag #   256  UFLUX    , Parms: UU      L1 , mate:   257
(PID.TID 0000.0001)   set mate pointer for diag #   257  VFLUX    , Parms: VV      L1 , mate:   256
(PID.TID 0000.0001) DIAGNOSTICS_SET_POINTERS: Set levels for Outp.Stream: aimDiag
(PID.TID 0000.0001)  Levels:       1.
(PID.TID 0000.0001) DIAGNOSTICS_SET_POINTERS: Set levels for Outp.Stream: aimDDT
(PID.TID 0000.0001)  Levels:       1.   2.   3.   4.   5.
(PID.TID 0000.0001) DIAGNOSTICS_SET_POINTERS: Set levels for Outp.Stream: thSIceDiag
(PID.TID 0000.0001)  Levels:       1.
(PID.TID 0000.0001) DIAGNOSTICS_SET_POINTERS: done
(PID.TID 0000.0001) ------------------------------------------------------------
 DIAGSTATS_SET_REGIONS: start reading region-mask file: regMask_lat24.bin
 DIAGSTATS_SET_REGIONS:  reading set k=  1
(PID.TID 0000.0001)  MDS_READ_FIELD: opening global file: regMask_lat24.bin
 DIAGSTATS_SET_REGIONS:          set k=  1 <= done
(PID.TID 0000.0001) DIAGSTATS_SET_REGIONS: define   3 regions:  1  2  3
(PID.TID 0000.0001) ------------------------------------------------------------
(PID.TID 0000.0001) SETDIAG: Allocate  1 Levels for Stats-Diag #    23 ETAN
(PID.TID 0000.0001) SETDIAG: Allocate  5 Levels for Stats-Diag #    29 UVEL
(PID.TID 0000.0001) SETDIAG: Allocate  5 Levels for Stats-Diag #    30 VVEL
(PID.TID 0000.0001) SETDIAG: Allocate  5 Levels for Stats-Diag #    31 WVEL
(PID.TID 0000.0001) SETDIAG: Allocate  5 Levels for Stats-Diag #    26 THETA
(PID.TID 0000.0001) SETDIAG: Allocate  1 Levels for Stats-Diag #   213 LdSnowH
(PID.TID 0000.0001) SETDIAG: Allocate  1 Levels for Stats-Diag #   209 GrdSurfT
(PID.TID 0000.0001) SETDIAG: Allocate  2 Levels for Stats-Diag #   210 GrdTemp
(PID.TID 0000.0001) SETDIAG: Allocate  2 Levels for Stats-Diag #   212 GrdWater
(PID.TID 0000.0001) SETDIAG: Allocate  1 Levels for Stats-Diag #   176 SI_Fract
(PID.TID 0000.0001) SETDIAG: Allocate  1 Levels for Stats-Diag #   177 SI_Thick
(PID.TID 0000.0001) - NOTE - SETDIAG: Counter Diagnostic #   176 SI_Fract has already been set
(PID.TID 0000.0001) SETDIAG: Allocate  1 Levels for Stats-Diag #   178 SI_SnowH
(PID.TID 0000.0001) - NOTE - SETDIAG: Counter Diagnostic #   176 SI_Fract has already been set
(PID.TID 0000.0001) SETDIAG: Allocate  1 Levels for Stats-Diag #   179 SI_Tsrf
(PID.TID 0000.0001) - NOTE - SETDIAG: Counter Diagnostic #   176 SI_Fract has already been set
(PID.TID 0000.0001) SETDIAG: Allocate  1 Levels for Stats-Diag #   180 SI_Tice1
(PID.TID 0000.0001) - NOTE - SETDIAG: Counter Diagnostic #   176 SI_Fract has already been set
(PID.TID 0000.0001) SETDIAG: Allocate  1 Levels for Stats-Diag #   181 SI_Tice2
(PID.TID 0000.0001) - NOTE - SETDIAG: Counter Diagnostic #   176 SI_Fract has already been set
(PID.TID 0000.0001) SETDIAG: Allocate  1 Levels for Stats-Diag #   186 SIsnwPrc
(PID.TID 0000.0001) - NOTE - SETDIAG: Counter Diagnostic #   176 SI_Fract has already been set
(PID.TID 0000.0001) SETDIAG: Allocate  1 Levels for Stats-Diag #   185 SIalbedo
(PID.TID 0000.0001) - NOTE - SETDIAG: Counter Diagnostic #   176 SI_Fract has already been set
(PID.TID 0000.0001) SETDIAG: Allocate  1 Levels for Stats-Diag #   184 SIsnwAge
(PID.TID 0000.0001) SETDIAG: Allocate  1 Levels for Stats-Diag #   189 SIflx2oc
(PID.TID 0000.0001) SETDIAG: Allocate  1 Levels for Stats-Diag #   190 SIfrw2oc
(PID.TID 0000.0001) SETDIAG: Allocate  1 Levels for Stats-Diag #   191 SIsaltFx
(PID.TID 0000.0001)   space allocated for all stats-diags:      39 levels
(PID.TID 0000.0001) DIAGSTATS_SET_POINTERS: done
(PID.TID 0000.0001) ------------------------------------------------------------
(PID.TID 0000.0001) DIAGSTATS_INI_IO: open file: dynStDiag.0000000000.txt , unit=     9
(PID.TID 0000.0001) DIAGSTATS_INI_IO: open file: landStDiag.0000000000.txt , unit=    10
(PID.TID 0000.0001) DIAGSTATS_INI_IO: open file: thSIceStDiag.0000000000.txt , unit=    16
(PID.TID 0000.0001) INI_GLOBAL_DOMAIN: Found  24 CS-corner Pts in the domain
(PID.TID 0000.0001) %MON fCori_max                    =   1.4574827780704E-04
(PID.TID 0000.0001) %MON fCori_min                    =  -1.4574827780704E-04
(PID.TID 0000.0001) %MON fCori_mean                   =   0.0000000000000E+00
(PID.TID 0000.0001) %MON fCori_sd                     =   8.4202189509968E-05
(PID.TID 0000.0001) %MON fCoriG_max                   =   1.4584247033981E-04
(PID.TID 0000.0001) %MON fCoriG_min                   =  -1.4584247033981E-04
(PID.TID 0000.0001) %MON fCoriG_mean                  =   2.2587545260115E-21
(PID.TID 0000.0001) %MON fCoriG_sd                    =   8.4202189509968E-05
(PID.TID 0000.0001) %MON fCoriCos_max                 =   1.4580166994612E-04
(PID.TID 0000.0001) %MON fCoriCos_min                 =   5.2407700865903E-06
(PID.TID 0000.0001) %MON fCoriCos_mean                =   1.1514045869113E-04
(PID.TID 0000.0001) %MON fCoriCos_sd                  =   3.0375849106513E-05
(PID.TID 0000.0001) INI_CG2D: CG2D normalisation factor =  9.9119603843467461E-06
(PID.TID 0000.0001) INI_CG2D: cg2dTolerance = 1.123144856357769E-10 (Area=5.0990436378E+14)
(PID.TID 0000.0001) 
(PID.TID 0000.0001) // =======================================================
(PID.TID 0000.0001) // Model configuration
(PID.TID 0000.0001) // =======================================================
(PID.TID 0000.0001) //
(PID.TID 0000.0001) // "Physical" paramters ( PARM01 in namelist )
(PID.TID 0000.0001) //
(PID.TID 0000.0001) buoyancyRelation = /* Type of relation to get Buoyancy */
(PID.TID 0000.0001)               'ATMOSPHERIC'
(PID.TID 0000.0001)     ;
(PID.TID 0000.0001) fluidIsAir   =  /* fluid major constituent is Air */
(PID.TID 0000.0001)                   T
(PID.TID 0000.0001)     ;
(PID.TID 0000.0001) fluidIsWater =  /* fluid major constituent is Water */
(PID.TID 0000.0001)                   F
(PID.TID 0000.0001)     ;
(PID.TID 0000.0001) usingPCoords =  /* use p (or p*) vertical coordinate */
(PID.TID 0000.0001)                   T
(PID.TID 0000.0001)     ;
(PID.TID 0000.0001) usingZCoords =  /* use z (or z*) vertical coordinate */
(PID.TID 0000.0001)                   F
(PID.TID 0000.0001)     ;
(PID.TID 0000.0001) tRef =   /* Reference temperature profile ( oC or K ) */
(PID.TID 0000.0001)                 2.896000000000000E+02,      /* K =  1 */
(PID.TID 0000.0001)                 2.981000000000000E+02,      /* K =  2 */
(PID.TID 0000.0001)                 3.145000000000000E+02,      /* K =  3 */
(PID.TID 0000.0001)                 3.358000000000000E+02,      /* K =  4 */
(PID.TID 0000.0001)                 4.374000000000000E+02       /* K =  5 */
(PID.TID 0000.0001)     ;
(PID.TID 0000.0001) sRef =   /* Reference salinity profile ( psu ) */
(PID.TID 0000.0001)     5 @  0.000000000000000E+00              /* K =  1:  5 */
(PID.TID 0000.0001)     ;
(PID.TID 0000.0001) useStrainTensionVisc= /* Use StrainTension Form of Viscous Operator */
(PID.TID 0000.0001)                   F
(PID.TID 0000.0001)     ;
(PID.TID 0000.0001) useVariableVisc = /* Use variable horizontal viscosity */
(PID.TID 0000.0001)                   F
(PID.TID 0000.0001)     ;
(PID.TID 0000.0001) useHarmonicVisc = /* Use harmonic horizontal viscosity */
(PID.TID 0000.0001)                   F
(PID.TID 0000.0001)     ;
(PID.TID 0000.0001) useBiharmonicVisc= /* Use biharmonic horiz.  viscosity */
(PID.TID 0000.0001)                   F
(PID.TID 0000.0001)     ;
(PID.TID 0000.0001) useSmag3D = /* Use isotropic 3-D Smagorinsky viscosity */
(PID.TID 0000.0001)                   F
(PID.TID 0000.0001)     ;
(PID.TID 0000.0001) viscAh  =   /* Lateral harmonic viscosity ( m^2/s ) */
(PID.TID 0000.0001)                 0.000000000000000E+00
(PID.TID 0000.0001)     ;
(PID.TID 0000.0001) viscA4  =   /* Lateral biharmonic viscosity ( m^4/s ) */
(PID.TID 0000.0001)                 0.000000000000000E+00
(PID.TID 0000.0001)     ;
(PID.TID 0000.0001) no_slip_sides =  /* Viscous BCs: No-slip sides */
(PID.TID 0000.0001)                   F
(PID.TID 0000.0001)     ;
(PID.TID 0000.0001) sideDragFactor = /* side-drag scaling factor (non-dim) */
(PID.TID 0000.0001)                 2.000000000000000E+00
(PID.TID 0000.0001)     ;
(PID.TID 0000.0001) viscArNr = /* vertical profile of vertical viscosity (Pa^2/s )*/
(PID.TID 0000.0001)     5 @  0.000000000000000E+00              /* K =  1:  5 */
(PID.TID 0000.0001)     ;
(PID.TID 0000.0001) no_slip_bottom =  /* Viscous BCs: No-slip bottom */
(PID.TID 0000.0001)                   F
(PID.TID 0000.0001)     ;
(PID.TID 0000.0001) bottomDragLinear = /* linear bottom-drag coefficient ( m/s ) */
(PID.TID 0000.0001)                 0.000000000000000E+00
(PID.TID 0000.0001)     ;
(PID.TID 0000.0001) bottomDragQuadratic = /* quadratic bottom-drag coefficient (-) */
(PID.TID 0000.0001)                 0.000000000000000E+00
(PID.TID 0000.0001)     ;
(PID.TID 0000.0001) diffKhT =   /* Laplacian diffusion of heat laterally ( m^2/s ) */
(PID.TID 0000.0001)                 0.000000000000000E+00
(PID.TID 0000.0001)     ;
(PID.TID 0000.0001) diffK4T =   /* Biharmonic diffusion of heat laterally ( m^4/s ) */
(PID.TID 0000.0001)                 0.000000000000000E+00
(PID.TID 0000.0001)     ;
(PID.TID 0000.0001) diffKhS =   /* Laplacian diffusion of salt laterally ( m^2/s ) */
(PID.TID 0000.0001)                 0.000000000000000E+00
(PID.TID 0000.0001)     ;
(PID.TID 0000.0001) diffK4S =   /* Biharmonic diffusion of salt laterally ( m^4/s ) */
(PID.TID 0000.0001)                 0.000000000000000E+00
(PID.TID 0000.0001)     ;
(PID.TID 0000.0001) diffKrNrT = /* vertical profile of vertical diffusion of Temp (Pa^2/s )*/
(PID.TID 0000.0001)     5 @  0.000000000000000E+00              /* K =  1:  5 */
(PID.TID 0000.0001)     ;
(PID.TID 0000.0001) diffKrNrS = /* vertical profile of vertical diffusion of Salt (Pa^2/s )*/
(PID.TID 0000.0001)     5 @  0.000000000000000E+00              /* K =  1:  5 */
(PID.TID 0000.0001)     ;
(PID.TID 0000.0001) diffKrBL79surf = /* Surface diffusion for Bryan and Lewis 79 ( m^2/s ) */
(PID.TID 0000.0001)                 0.000000000000000E+00
(PID.TID 0000.0001)     ;
(PID.TID 0000.0001) diffKrBL79deep = /* Deep diffusion for Bryan and Lewis 1979 ( m^2/s ) */
(PID.TID 0000.0001)                 0.000000000000000E+00
(PID.TID 0000.0001)     ;
(PID.TID 0000.0001) diffKrBL79scl = /* Depth scale for Bryan and Lewis 1979 ( m ) */
(PID.TID 0000.0001)                 2.000000000000000E+02
(PID.TID 0000.0001)     ;
(PID.TID 0000.0001) diffKrBL79Ho = /* Turning depth for Bryan and Lewis 1979 ( m ) */
(PID.TID 0000.0001)                -2.000000000000000E+03
(PID.TID 0000.0001)     ;
(PID.TID 0000.0001) ivdc_kappa = /* Implicit Vertical Diffusivity for Convection (Pa^2/s) */
(PID.TID 0000.0001)                 0.000000000000000E+00
(PID.TID 0000.0001)     ;
(PID.TID 0000.0001) hMixCriteria=  /* Criteria for mixed-layer diagnostic */
(PID.TID 0000.0001)                -8.000000000000000E-01
(PID.TID 0000.0001)     ;
(PID.TID 0000.0001) dRhoSmall =  /* Parameter for mixed-layer diagnostic */
(PID.TID 0000.0001)                 1.000000000000000E-06
(PID.TID 0000.0001)     ;
(PID.TID 0000.0001) hMixSmooth=  /* Smoothing parameter for mixed-layer diagnostic */
(PID.TID 0000.0001)                 0.000000000000000E+00
(PID.TID 0000.0001)     ;
(PID.TID 0000.0001) eosType =  /* Type of Equation of State */
(PID.TID 0000.0001)               'IDEALG'
(PID.TID 0000.0001)     ;
(PID.TID 0000.0001) celsius2K = /* 0 degree Celsius converted to Kelvin ( K ) */
(PID.TID 0000.0001)                 2.731500000000000E+02
(PID.TID 0000.0001)     ;
(PID.TID 0000.0001) atm_Rd =    /* gas constant for dry air ( J/kg/K ) */
(PID.TID 0000.0001)                 2.868571428571428E+02
(PID.TID 0000.0001)     ;
(PID.TID 0000.0001) atm_Cp =    /* specific heat (Cp) of dry air ( J/kg/K ) */
(PID.TID 0000.0001)                 1.004000000000000E+03
(PID.TID 0000.0001)     ;
(PID.TID 0000.0001) atm_kappa = /* kappa (=Rd/Cp ) of dry air */
(PID.TID 0000.0001)                 2.857142857142857E-01
(PID.TID 0000.0001)     ;
(PID.TID 0000.0001) atm_Rq =  /* water vap. specific vol. anomaly relative to dry air */
(PID.TID 0000.0001)                 6.078000000000000E-04
(PID.TID 0000.0001)     ;
(PID.TID 0000.0001) atm_Po =    /* standard reference pressure ( Pa ) */
(PID.TID 0000.0001)                 1.000000000000000E+05
(PID.TID 0000.0001)     ;
(PID.TID 0000.0001) thetaConst= /* constant reference for potential temperature ( K ) */
(PID.TID 0000.0001)                 2.896000000000000E+02
(PID.TID 0000.0001)     ;
(PID.TID 0000.0001) integr_GeoPot =  /* select how the geopotential is integrated */
(PID.TID 0000.0001)                       2
(PID.TID 0000.0001)     ;
(PID.TID 0000.0001) selectFindRoSurf=  /* select how Surf.Ref. pressure is defined */
(PID.TID 0000.0001)                       1
(PID.TID 0000.0001)     ;
(PID.TID 0000.0001) rhoConst  = /* Reference density (Boussinesq)  ( kg/m^3 ) */
(PID.TID 0000.0001)                 9.998000000000000E+02
(PID.TID 0000.0001)     ;
(PID.TID 0000.0001) rhoFacC = /* normalized Reference density @ cell-Center (-) */
(PID.TID 0000.0001)     5 @  1.000000000000000E+00              /* K =  1:  5 */
(PID.TID 0000.0001)     ;
(PID.TID 0000.0001) rhoFacF = /* normalized Reference density @ W-Interface (-) */
(PID.TID 0000.0001)     6 @  1.000000000000000E+00              /* K =  1:  6 */
(PID.TID 0000.0001)     ;
(PID.TID 0000.0001) rhoConstFresh = /* Fresh-water reference density ( kg/m^3 ) */
(PID.TID 0000.0001)                 1.000000000000000E+03
(PID.TID 0000.0001)     ;
(PID.TID 0000.0001) gravity =   /* Gravitational acceleration ( m/s^2 ) */
(PID.TID 0000.0001)                 9.810000000000000E+00
(PID.TID 0000.0001)     ;
(PID.TID 0000.0001) gBaro =   /* Barotropic gravity ( m/s^2 ) */
(PID.TID 0000.0001)                 9.810000000000000E+00
(PID.TID 0000.0001)     ;
(PID.TID 0000.0001) rotationPeriod =   /* Rotation Period ( s ) */
(PID.TID 0000.0001)                 8.616400000000000E+04
(PID.TID 0000.0001)     ;
(PID.TID 0000.0001) omega =   /* Angular velocity ( rad/s ) */
(PID.TID 0000.0001)                 7.292123516990375E-05
(PID.TID 0000.0001)     ;
(PID.TID 0000.0001) f0 =   /* Reference coriolis parameter ( 1/s ) */
(PID.TID 0000.0001)                 1.000000000000000E-04
(PID.TID 0000.0001)     ;
(PID.TID 0000.0001) beta =   /* Beta ( 1/(m.s) ) */
(PID.TID 0000.0001)                 9.999999999999999E-12
(PID.TID 0000.0001)     ;
(PID.TID 0000.0001) fPrime =   /* Second coriolis parameter ( 1/s ) */
(PID.TID 0000.0001)                 0.000000000000000E+00
(PID.TID 0000.0001)     ;
(PID.TID 0000.0001) rigidLid =   /* Rigid lid on/off flag */
(PID.TID 0000.0001)                   F
(PID.TID 0000.0001)     ;
(PID.TID 0000.0001) implicitFreeSurface =   /* Implicit free surface on/off flag */
(PID.TID 0000.0001)                   T
(PID.TID 0000.0001)     ;
(PID.TID 0000.0001) freeSurfFac =   /* Implicit free surface factor */
(PID.TID 0000.0001)                 1.000000000000000E+00
(PID.TID 0000.0001)     ;
(PID.TID 0000.0001) implicSurfPress =  /* Surface Pressure implicit factor (0-1)*/
(PID.TID 0000.0001)                 1.000000000000000E+00
(PID.TID 0000.0001)     ;
(PID.TID 0000.0001) implicDiv2Dflow =  /* Barot. Flow Div. implicit factor (0-1)*/
(PID.TID 0000.0001)                 1.000000000000000E+00
(PID.TID 0000.0001)     ;
(PID.TID 0000.0001) uniformLin_PhiSurf = /* use uniform Bo_surf on/off flag*/
(PID.TID 0000.0001)                   F
(PID.TID 0000.0001)     ;
(PID.TID 0000.0001) uniformFreeSurfLev = /* free-surface level-index is uniform */
(PID.TID 0000.0001)                   F
(PID.TID 0000.0001)     ;
(PID.TID 0000.0001) hFacMin =   /* minimum partial cell factor (hFac) */
(PID.TID 0000.0001)                 2.000000000000000E-01
(PID.TID 0000.0001)     ;
(PID.TID 0000.0001) hFacMinDr = /* minimum partial cell thickness (Pa) */
(PID.TID 0000.0001)                 0.000000000000000E+00
(PID.TID 0000.0001)     ;
(PID.TID 0000.0001) exactConserv =  /* Exact Volume Conservation on/off flag*/
(PID.TID 0000.0001)                   T
(PID.TID 0000.0001)     ;
(PID.TID 0000.0001) linFSConserveTr = /* Tracer correction for Lin Free Surface on/off flag*/
(PID.TID 0000.0001)                   F
(PID.TID 0000.0001)     ;
(PID.TID 0000.0001) nonlinFreeSurf = /* Non-linear Free Surf. options (-1,0,1,2,3)*/
(PID.TID 0000.0001)                       4
(PID.TID 0000.0001)      -1,0= Off ; 1,2,3= On, 2=+rescale gU,gV, 3=+update cg2d solv.
(PID.TID 0000.0001)     ;
(PID.TID 0000.0001) hFacInf =   /* lower threshold for hFac (nonlinFreeSurf only)*/
(PID.TID 0000.0001)                 2.000000000000000E-01
(PID.TID 0000.0001)     ;
(PID.TID 0000.0001) hFacSup =   /* upper threshold for hFac (nonlinFreeSurf only)*/
(PID.TID 0000.0001)                 2.000000000000000E+00
(PID.TID 0000.0001)     ;
(PID.TID 0000.0001) select_rStar = /* r* Vertical coord. options (=0 r coord.; >0 uses r*)*/
(PID.TID 0000.0001)                       2
(PID.TID 0000.0001)     ;
(PID.TID 0000.0001) useRealFreshWaterFlux = /* Real Fresh Water Flux on/off flag*/
(PID.TID 0000.0001)                   F
(PID.TID 0000.0001)     ;
(PID.TID 0000.0001) temp_EvPrRn = /* Temp. of Evap/Prec/R (UNSET=use local T)(oC)*/
(PID.TID 0000.0001)                 1.234567000000000E+05
(PID.TID 0000.0001)     ;
(PID.TID 0000.0001) salt_EvPrRn = /* Salin. of Evap/Prec/R (UNSET=use local S)(psu)*/
(PID.TID 0000.0001)                 0.000000000000000E+00
(PID.TID 0000.0001)     ;
(PID.TID 0000.0001) selectAddFluid = /* option for mass source/sink of fluid (=0: off) */
(PID.TID 0000.0001)                       0
(PID.TID 0000.0001)     ;
(PID.TID 0000.0001) temp_addMass = /* Temp. of addMass array (UNSET=use local T)(oC)*/
(PID.TID 0000.0001)                 1.234567000000000E+05
(PID.TID 0000.0001)     ;
(PID.TID 0000.0001) salt_addMass = /* Salin. of addMass array (UNSET=use local S)(psu)*/
(PID.TID 0000.0001)                 0.000000000000000E+00
(PID.TID 0000.0001)     ;
(PID.TID 0000.0001) convertFW2Salt = /* convert F.W. Flux to Salt Flux (-1=use local S)(psu)*/
(PID.TID 0000.0001)                 3.500000000000000E+01
(PID.TID 0000.0001)     ;
(PID.TID 0000.0001) use3Dsolver = /* use 3-D pressure solver on/off flag */
(PID.TID 0000.0001)                   F
(PID.TID 0000.0001)     ;
(PID.TID 0000.0001) nonHydrostatic =  /* Non-Hydrostatic on/off flag */
(PID.TID 0000.0001)                   F
(PID.TID 0000.0001)     ;
(PID.TID 0000.0001) nh_Am2 = /* Non-Hydrostatic terms scaling factor */
(PID.TID 0000.0001)                 1.000000000000000E+00
(PID.TID 0000.0001)     ;
(PID.TID 0000.0001) implicitNHPress = /* Non-Hyd Pressure implicit factor (0-1)*/
(PID.TID 0000.0001)                 1.000000000000000E+00
(PID.TID 0000.0001)     ;
(PID.TID 0000.0001) selectNHfreeSurf = /* Non-Hyd (free-)Surface option */
(PID.TID 0000.0001)                       0
(PID.TID 0000.0001)     ;
(PID.TID 0000.0001) quasiHydrostatic = /* Quasi-Hydrostatic on/off flag */
(PID.TID 0000.0001)                   F
(PID.TID 0000.0001)     ;
(PID.TID 0000.0001) calc_wVelocity = /* vertical velocity calculation on/off flag */
(PID.TID 0000.0001)                   T
(PID.TID 0000.0001)     ;
(PID.TID 0000.0001) momStepping =  /* Momentum equation on/off flag */
(PID.TID 0000.0001)                   T
(PID.TID 0000.0001)     ;
(PID.TID 0000.0001) vectorInvariantMomentum= /* Vector-Invariant Momentum on/off */
(PID.TID 0000.0001)                   T
(PID.TID 0000.0001)     ;
(PID.TID 0000.0001) momAdvection =  /* Momentum advection on/off flag */
(PID.TID 0000.0001)                   T
(PID.TID 0000.0001)     ;
(PID.TID 0000.0001) momViscosity =  /* Momentum viscosity on/off flag */
(PID.TID 0000.0001)                   T
(PID.TID 0000.0001)     ;
(PID.TID 0000.0001) momImplVertAdv= /* Momentum implicit vert. advection on/off*/
(PID.TID 0000.0001)                   F
(PID.TID 0000.0001)     ;
(PID.TID 0000.0001) implicitViscosity = /* Implicit viscosity on/off flag */
(PID.TID 0000.0001)                   F
(PID.TID 0000.0001)     ;
(PID.TID 0000.0001) metricTerms =  /* metric-Terms on/off flag */
(PID.TID 0000.0001)                   F
(PID.TID 0000.0001)     ;
(PID.TID 0000.0001) useNHMTerms = /* Non-Hydrostatic Metric-Terms on/off */
(PID.TID 0000.0001)                   F
(PID.TID 0000.0001)     ;
(PID.TID 0000.0001) selectCoriMap = /* Coriolis Map options (0,1,2,3)*/
(PID.TID 0000.0001)                       2
(PID.TID 0000.0001)     0= f-Plane ; 1= Beta-Plane ; 2= Spherical ; 3= read from file
(PID.TID 0000.0001)     ;
(PID.TID 0000.0001) use3dCoriolis = /* 3-D Coriolis on/off flag */
(PID.TID 0000.0001)                   F
(PID.TID 0000.0001)     ;
(PID.TID 0000.0001) useCoriolis =  /* Coriolis on/off flag */
(PID.TID 0000.0001)                   T
(PID.TID 0000.0001)     ;
(PID.TID 0000.0001) useCDscheme =  /* CD scheme on/off flag */
(PID.TID 0000.0001)                   F
(PID.TID 0000.0001)     ;
(PID.TID 0000.0001) useEnergyConservingCoriolis= /* Flx-Form Coriolis scheme flag */
(PID.TID 0000.0001)                   F
(PID.TID 0000.0001)     ;
(PID.TID 0000.0001) useJamartWetPoints= /* Coriolis WetPoints method flag */
(PID.TID 0000.0001)                   T
(PID.TID 0000.0001)     ;
(PID.TID 0000.0001) useJamartMomAdv= /* V.I Non-linear terms Jamart flag */
(PID.TID 0000.0001)                   F
(PID.TID 0000.0001)     ;
(PID.TID 0000.0001) useAbsVorticity= /* V.I Works with f+zeta in Coriolis */
(PID.TID 0000.0001)                   F
(PID.TID 0000.0001)     ;
(PID.TID 0000.0001) selectVortScheme= /* V.I Scheme selector for Vorticity-Term */
(PID.TID 0000.0001)                       1
(PID.TID 0000.0001)    = 0 : enstrophy (Shallow-Water Eq.) conserving scheme by Sadourny, JAS 75
(PID.TID 0000.0001)    = 1 : same as 0 with modified hFac
(PID.TID 0000.0001)    = 2 : energy conserving scheme (used by Sadourny in JAS 75 paper)
(PID.TID 0000.0001)    = 3 : energy (general) and enstrophy (2D, nonDiv.) conserving scheme
(PID.TID 0000.0001)          from Sadourny (Burridge & Haseler, ECMWF Rep.4, 1977)
(PID.TID 0000.0001)     ;
(PID.TID 0000.0001) upwindVorticity= /* V.I Upwind bias vorticity flag */
(PID.TID 0000.0001)                   F
(PID.TID 0000.0001)     ;
(PID.TID 0000.0001) highOrderVorticity= /* V.I High order vort. advect. flag */
(PID.TID 0000.0001)                   F
(PID.TID 0000.0001)     ;
(PID.TID 0000.0001) upwindShear= /* V.I Upwind vertical Shear advection flag */
(PID.TID 0000.0001)                   F
(PID.TID 0000.0001)     ;
(PID.TID 0000.0001) selectKEscheme= /* V.I Kinetic Energy scheme selector */
(PID.TID 0000.0001)                       0
(PID.TID 0000.0001)     ;
(PID.TID 0000.0001) momForcing =  /* Momentum forcing on/off flag */
(PID.TID 0000.0001)                   T
(PID.TID 0000.0001)     ;
(PID.TID 0000.0001) momPressureForcing =  /* Momentum pressure term on/off flag */
(PID.TID 0000.0001)                   T
(PID.TID 0000.0001)     ;
(PID.TID 0000.0001) implicitIntGravWave= /* Implicit Internal Gravity Wave flag */
(PID.TID 0000.0001)                   F
(PID.TID 0000.0001)     ;
(PID.TID 0000.0001) staggerTimeStep =    /* Stagger time stepping on/off flag */
(PID.TID 0000.0001)                   T
(PID.TID 0000.0001)     ;
(PID.TID 0000.0001) doResetHFactors = /* reset thickness factors @ each time-step */
(PID.TID 0000.0001)                   F
(PID.TID 0000.0001)     ;
(PID.TID 0000.0001) multiDimAdvection =  /* enable/disable Multi-Dim Advection */
(PID.TID 0000.0001)                   T
(PID.TID 0000.0001)     ;
(PID.TID 0000.0001) useMultiDimAdvec =   /* Multi-Dim Advection is/is-not used */
(PID.TID 0000.0001)                   F
(PID.TID 0000.0001)     ;
(PID.TID 0000.0001) implicitDiffusion = /* Implicit Diffusion on/off flag */
(PID.TID 0000.0001)                   F
(PID.TID 0000.0001)     ;
(PID.TID 0000.0001) tempStepping =  /* Temperature equation on/off flag */
(PID.TID 0000.0001)                   T
(PID.TID 0000.0001)     ;
(PID.TID 0000.0001) tempAdvection = /* Temperature advection on/off flag */
(PID.TID 0000.0001)                   T
(PID.TID 0000.0001)     ;
(PID.TID 0000.0001) tempImplVertAdv = /* Temp. implicit vert. advection on/off */
(PID.TID 0000.0001)                   F
(PID.TID 0000.0001)     ;
(PID.TID 0000.0001) tempForcing  =  /* Temperature forcing on/off flag */
(PID.TID 0000.0001)                   T
(PID.TID 0000.0001)     ;
(PID.TID 0000.0001) addFrictionHeating= /* account for frictional heating */
(PID.TID 0000.0001)                   F
(PID.TID 0000.0001)     ;
(PID.TID 0000.0001) doThetaClimRelax = /* apply SST relaxation on/off flag */
(PID.TID 0000.0001)                   F
(PID.TID 0000.0001)     ;
(PID.TID 0000.0001) tempIsActiveTr = /* Temp. is a dynamically Active Tracer */
(PID.TID 0000.0001)                   T
(PID.TID 0000.0001)     ;
(PID.TID 0000.0001) saltStepping =  /* Salinity equation on/off flag */
(PID.TID 0000.0001)                   T
(PID.TID 0000.0001)     ;
(PID.TID 0000.0001) saltAdvection = /* Salinity advection on/off flag */
(PID.TID 0000.0001)                   T
(PID.TID 0000.0001)     ;
(PID.TID 0000.0001) saltImplVertAdv = /* Sali. implicit vert. advection on/off */
(PID.TID 0000.0001)                   F
(PID.TID 0000.0001)     ;
(PID.TID 0000.0001) saltForcing  =  /* Salinity forcing on/off flag */
(PID.TID 0000.0001)                   T
(PID.TID 0000.0001)     ;
(PID.TID 0000.0001) doSaltClimRelax = /* apply SSS relaxation on/off flag */
(PID.TID 0000.0001)                   F
(PID.TID 0000.0001)     ;
(PID.TID 0000.0001) saltIsActiveTr = /* Salt  is a dynamically Active Tracer */
(PID.TID 0000.0001)                   T
(PID.TID 0000.0001)     ;
(PID.TID 0000.0001)  readBinaryPrec = /* Precision used for reading binary files */
(PID.TID 0000.0001)                      64
(PID.TID 0000.0001)     ;
(PID.TID 0000.0001) writeBinaryPrec = /* Precision used for writing binary files */
(PID.TID 0000.0001)                      32
(PID.TID 0000.0001)     ;
(PID.TID 0000.0001)  globalFiles = /* write "global" (=not per tile) files */
(PID.TID 0000.0001)                   F
(PID.TID 0000.0001)     ;
(PID.TID 0000.0001)  useSingleCpuIO = /* only master MPI process does I/O */
(PID.TID 0000.0001)                   T
(PID.TID 0000.0001)     ;
(PID.TID 0000.0001)  useSingleCpuInput = /* only master process reads input */
(PID.TID 0000.0001)                   T
(PID.TID 0000.0001)     ;
(PID.TID 0000.0001) /* debLev[*]  : level of debug & auxiliary message printing */
(PID.TID 0000.0001) debLevZero =  0 ; /* level of disabled aux. msg printing */
(PID.TID 0000.0001)    debLevA =  1 ; /* level of minimum  aux. msg printing */
(PID.TID 0000.0001)    debLevB =  2 ; /* level of low aux. print (report read-file opening)*/
(PID.TID 0000.0001)    debLevC =  3 ; /* level of moderate debug prt (most pkgs debug msg) */
(PID.TID 0000.0001)    debLevD =  4 ; /* level of enhanced debug prt (add DEBUG_STATS prt) */
(PID.TID 0000.0001)    debLevE =  5 ; /* level of extensive debug printing */
(PID.TID 0000.0001) debugLevel =  /* select debug printing level */
(PID.TID 0000.0001)                       2
(PID.TID 0000.0001)     ;
(PID.TID 0000.0001) //
(PID.TID 0000.0001) // Elliptic solver(s) paramters ( PARM02 in namelist )
(PID.TID 0000.0001) //
(PID.TID 0000.0001) cg2dMaxIters =   /* Upper limit on 2d con. grad iterations  */
(PID.TID 0000.0001)                     200
(PID.TID 0000.0001)     ;
(PID.TID 0000.0001) cg2dChkResFreq =   /* 2d con. grad convergence test frequency */
(PID.TID 0000.0001)                       1
(PID.TID 0000.0001)     ;
(PID.TID 0000.0001) cg2dUseMinResSol= /* use cg2d last-iter(=0) / min-resid.(=1) solution */
(PID.TID 0000.0001)                       0
(PID.TID 0000.0001)     ;
(PID.TID 0000.0001) cg2dTargetResidual =   /* 2d con. grad target residual  */
(PID.TID 0000.0001)                 1.000000000000000E-07
(PID.TID 0000.0001)     ;
(PID.TID 0000.0001) cg2dTargetResWunit =   /* CG2d target residual [W units] */
(PID.TID 0000.0001)                 1.000000000000000E-17
(PID.TID 0000.0001)     ;
(PID.TID 0000.0001) cg2dPreCondFreq =   /* Freq. for updating cg2d preconditioner */
(PID.TID 0000.0001)                       1
(PID.TID 0000.0001)     ;
(PID.TID 0000.0001) useSRCGSolver =  /* use single reduction CG solver(s) */
(PID.TID 0000.0001)                   F
(PID.TID 0000.0001)     ;
(PID.TID 0000.0001) printResidualFreq = /* Freq. for printing CG residual */
(PID.TID 0000.0001)                       0
(PID.TID 0000.0001)     ;
(PID.TID 0000.0001) //
(PID.TID 0000.0001) // Time stepping paramters ( PARM03 in namelist )
(PID.TID 0000.0001) //
(PID.TID 0000.0001) deltaTMom =   /* Momentum equation timestep ( s ) */
(PID.TID 0000.0001)                 4.500000000000000E+02
(PID.TID 0000.0001)     ;
(PID.TID 0000.0001) deltaTFreeSurf = /* FreeSurface equation timestep ( s ) */
(PID.TID 0000.0001)                 4.500000000000000E+02
(PID.TID 0000.0001)     ;
(PID.TID 0000.0001) dTtracerLev =  /* Tracer equation timestep ( s ) */
(PID.TID 0000.0001)     5 @  4.500000000000000E+02              /* K =  1:  5 */
(PID.TID 0000.0001)     ;
(PID.TID 0000.0001) deltaTClock  =   /* Model clock timestep ( s ) */
(PID.TID 0000.0001)                 4.500000000000000E+02
(PID.TID 0000.0001)     ;
(PID.TID 0000.0001) cAdjFreq =   /* Convective adjustment interval ( s ) */
(PID.TID 0000.0001)                 0.000000000000000E+00
(PID.TID 0000.0001)     ;
(PID.TID 0000.0001) momForcingOutAB = /* =1: take Momentum Forcing out of Adams-Bash. stepping */
(PID.TID 0000.0001)                       1
(PID.TID 0000.0001)     ;
(PID.TID 0000.0001) tracForcingOutAB = /* =1: take T,S,pTr Forcing out of Adams-Bash. stepping */
(PID.TID 0000.0001)                       1
(PID.TID 0000.0001)     ;
(PID.TID 0000.0001) momDissip_In_AB = /* put Dissipation Tendency in Adams-Bash. stepping */
(PID.TID 0000.0001)                   T
(PID.TID 0000.0001)     ;
(PID.TID 0000.0001) doAB_onGtGs = /* apply AB on Tendencies (rather than on T,S)*/
(PID.TID 0000.0001)                   T
(PID.TID 0000.0001)     ;
(PID.TID 0000.0001) abEps =   /* Adams-Bashforth-2 stabilizing weight */
(PID.TID 0000.0001)                 1.000000000000000E-01
(PID.TID 0000.0001)     ;
(PID.TID 0000.0001) pickupStrictlyMatch= /* stop if pickup do not strictly match */
(PID.TID 0000.0001)                   T
(PID.TID 0000.0001)     ;
(PID.TID 0000.0001) nIter0   =   /* Run starting timestep number */
(PID.TID 0000.0001)                       0
(PID.TID 0000.0001)     ;
(PID.TID 0000.0001) nTimeSteps = /* Number of timesteps */
(PID.TID 0000.0001)                      10
(PID.TID 0000.0001)     ;
(PID.TID 0000.0001) nEndIter =   /* Run ending timestep number */
(PID.TID 0000.0001)                      10
(PID.TID 0000.0001)     ;
(PID.TID 0000.0001) baseTime =   /* Model base time ( s ) */
(PID.TID 0000.0001)                 0.000000000000000E+00
(PID.TID 0000.0001)     ;
(PID.TID 0000.0001) startTime =  /* Run start time ( s ) */
(PID.TID 0000.0001)                 0.000000000000000E+00
(PID.TID 0000.0001)     ;
(PID.TID 0000.0001) endTime  =   /* Integration ending time ( s ) */
(PID.TID 0000.0001)                 4.500000000000000E+03
(PID.TID 0000.0001)     ;
(PID.TID 0000.0001) pChkPtFreq = /* Permanent restart/pickup file interval ( s ) */
(PID.TID 0000.0001)                 2.592000000000000E+06
(PID.TID 0000.0001)     ;
(PID.TID 0000.0001) chkPtFreq  = /* Rolling restart/pickup file interval ( s ) */
(PID.TID 0000.0001)                 0.000000000000000E+00
(PID.TID 0000.0001)     ;
(PID.TID 0000.0001) pickup_write_mdsio =   /* Model IO flag. */
(PID.TID 0000.0001)                   T
(PID.TID 0000.0001)     ;
(PID.TID 0000.0001) pickup_read_mdsio =   /* Model IO flag. */
(PID.TID 0000.0001)                   T
(PID.TID 0000.0001)     ;
(PID.TID 0000.0001) pickup_write_mnc =   /* Model IO flag. */
(PID.TID 0000.0001)                   F
(PID.TID 0000.0001)     ;
(PID.TID 0000.0001) pickup_read_mnc =   /* Model IO flag. */
(PID.TID 0000.0001)                   F
(PID.TID 0000.0001)     ;
(PID.TID 0000.0001) pickup_write_immed =   /* Model IO flag. */
(PID.TID 0000.0001)                   F
(PID.TID 0000.0001)     ;
(PID.TID 0000.0001) writePickupAtEnd =   /* Model IO flag. */
(PID.TID 0000.0001)                   T
(PID.TID 0000.0001)     ;
(PID.TID 0000.0001) dumpFreq =   /* Model state write out interval ( s ). */
(PID.TID 0000.0001)                 2.592000000000000E+06
(PID.TID 0000.0001)     ;
(PID.TID 0000.0001) dumpInitAndLast= /* write out Initial & Last iter. model state */
(PID.TID 0000.0001)                   T
(PID.TID 0000.0001)     ;
(PID.TID 0000.0001) snapshot_mdsio =   /* Model IO flag. */
(PID.TID 0000.0001)                   T
(PID.TID 0000.0001)     ;
(PID.TID 0000.0001) snapshot_mnc =   /* Model IO flag. */
(PID.TID 0000.0001)                   F
(PID.TID 0000.0001)     ;
(PID.TID 0000.0001) monitorFreq =   /* Monitor output interval ( s ). */
(PID.TID 0000.0001)                 1.000000000000000E+00
(PID.TID 0000.0001)     ;
(PID.TID 0000.0001) monitorSelect = /* select group of variables to monitor */
(PID.TID 0000.0001)                       2
(PID.TID 0000.0001)     ;
(PID.TID 0000.0001) monitor_stdio =   /* Model IO flag. */
(PID.TID 0000.0001)                   T
(PID.TID 0000.0001)     ;
(PID.TID 0000.0001) monitor_mnc =   /* Model IO flag. */
(PID.TID 0000.0001)                   F
(PID.TID 0000.0001)     ;
(PID.TID 0000.0001) externForcingPeriod =   /* forcing period (s) */
(PID.TID 0000.0001)                 0.000000000000000E+00
(PID.TID 0000.0001)     ;
(PID.TID 0000.0001) externForcingCycle =   /* period of the cyle (s). */
(PID.TID 0000.0001)                 0.000000000000000E+00
(PID.TID 0000.0001)     ;
(PID.TID 0000.0001) tauThetaClimRelax =   /* relaxation time scale (s) */
(PID.TID 0000.0001)                 0.000000000000000E+00
(PID.TID 0000.0001)     ;
(PID.TID 0000.0001) tauSaltClimRelax =   /* relaxation time scale (s) */
(PID.TID 0000.0001)                 0.000000000000000E+00
(PID.TID 0000.0001)     ;
(PID.TID 0000.0001) latBandClimRelax =   /* max. Lat. where relaxation */
(PID.TID 0000.0001)                 1.800000000000000E+02
(PID.TID 0000.0001)     ;
(PID.TID 0000.0001) //
(PID.TID 0000.0001) // Gridding paramters ( PARM04 in namelist )
(PID.TID 0000.0001) //
(PID.TID 0000.0001) usingCartesianGrid = /* Cartesian coordinates flag ( True/False ) */
(PID.TID 0000.0001)                   F
(PID.TID 0000.0001)     ;
(PID.TID 0000.0001) usingCylindricalGrid = /* Cylindrical coordinates flag ( True/False ) */
(PID.TID 0000.0001)                   F
(PID.TID 0000.0001)     ;
(PID.TID 0000.0001) usingSphericalPolarGrid = /* Spherical coordinates flag ( True/False ) */
(PID.TID 0000.0001)                   F
(PID.TID 0000.0001)     ;
(PID.TID 0000.0001) usingCurvilinearGrid = /* Curvilinear coordinates flag ( True/False ) */
(PID.TID 0000.0001)                   T
(PID.TID 0000.0001)     ;
(PID.TID 0000.0001) selectSigmaCoord = /* Hybrid-Sigma Vert. Coordinate option */
(PID.TID 0000.0001)                       0
(PID.TID 0000.0001)     ;
(PID.TID 0000.0001) Ro_SeaLevel = /* r(1) ( units of r == Pa ) */
(PID.TID 0000.0001)                 1.000000000000000E+05
(PID.TID 0000.0001)     ;
(PID.TID 0000.0001) rSigmaBnd = /* r/sigma transition ( units of r == Pa ) */
(PID.TID 0000.0001)                 1.234567000000000E+05
(PID.TID 0000.0001)     ;
(PID.TID 0000.0001) rkSign =   /* index orientation relative to vertical coordinate */
(PID.TID 0000.0001)                -1.000000000000000E+00
(PID.TID 0000.0001)     ;
(PID.TID 0000.0001) gravitySign = /* gravity orientation relative to vertical coordinate */
(PID.TID 0000.0001)                 1.000000000000000E+00
(PID.TID 0000.0001)     ;
(PID.TID 0000.0001) mass2rUnit = /* convert mass per unit area [kg/m2] to r-units [Pa] */
(PID.TID 0000.0001)                 9.810000000000000E+00
(PID.TID 0000.0001)     ;
(PID.TID 0000.0001) rUnit2mass = /* convert r-units [Pa] to mass per unit area [kg/m2] */
(PID.TID 0000.0001)                 1.019367991845056E-01
(PID.TID 0000.0001)     ;
(PID.TID 0000.0001) drC =   /* C spacing ( units of r ) */
(PID.TID 0000.0001)                 5.000000000000000E+03,      /* K =  1 */
(PID.TID 0000.0001)                 1.750000000000000E+04,      /* K =  2 */
(PID.TID 0000.0001)                 2.750000000000000E+04,      /* K =  3 */
(PID.TID 0000.0001)                 2.500000000000000E+04,      /* K =  4 */
(PID.TID 0000.0001)                 1.750000000000000E+04,      /* K =  5 */
(PID.TID 0000.0001)                 7.500000000000000E+03       /* K =  6 */
(PID.TID 0000.0001)     ;
(PID.TID 0000.0001) drF =   /* W spacing ( units of r ) */
(PID.TID 0000.0001)                 1.000000000000000E+04,      /* K =  1 */
(PID.TID 0000.0001)                 2.500000000000000E+04,      /* K =  2 */
(PID.TID 0000.0001)                 3.000000000000000E+04,      /* K =  3 */
(PID.TID 0000.0001)                 2.000000000000000E+04,      /* K =  4 */
(PID.TID 0000.0001)                 1.500000000000000E+04       /* K =  5 */
(PID.TID 0000.0001)     ;
(PID.TID 0000.0001) radius_fromHorizGrid = /* sphere Radius of input horiz. grid */
(PID.TID 0000.0001)                 6.370000000000000E+06
(PID.TID 0000.0001)     ;
(PID.TID 0000.0001) rSphere =  /* Radius ( ignored - cartesian, m - spherical ) */
(PID.TID 0000.0001)                 6.370000000000000E+06
(PID.TID 0000.0001)     ;
(PID.TID 0000.0001) deepAtmosphere = /* Deep/Shallow Atmosphere flag (True/False) */
(PID.TID 0000.0001)                   F
(PID.TID 0000.0001)     ;
(PID.TID 0000.0001) xC =  /* xC(:,1,:,1) : P-point X coord ( deg. or m if cartesian) */
(PID.TID 0000.0001)                -4.439521994760536E+01,      /* I =  1 */
(PID.TID 0000.0001)                -4.295641272275883E+01,      /* I =  2 */
(PID.TID 0000.0001)                -4.122055553388957E+01,      /* I =  3 */
(PID.TID 0000.0001)      . . .
(PID.TID 0000.0001)                 8.070819219728060E+01,      /* I = 46 */
(PID.TID 0000.0001)                 8.439652466417766E+01,      /* I = 47 */
(PID.TID 0000.0001)                 8.812739148696656E+01,      /* I = 48 */
(PID.TID 0000.0001)                 9.187260851303344E+01,      /* I = 49 */
(PID.TID 0000.0001)                 9.560347533582234E+01,      /* I = 50 */
(PID.TID 0000.0001)                 9.929180780271940E+01,      /* I = 51 */
(PID.TID 0000.0001)      . . .
(PID.TID 0000.0001)                 1.321863035748696E+02,      /* I = 94 */
(PID.TID 0000.0001)                 1.337919453120370E+02,      /* I = 95 */
(PID.TID 0000.0001)                 1.350000000000000E+02,      /* I = 96 */
(PID.TID 0000.0001)                 1.356047800523947E+02,      /* I = 97 */
(PID.TID 0000.0001)                 1.358367907661329E+02,      /* I = 98 */
(PID.TID 0000.0001)                 1.359720382181193E+02,      /* I = 99 */
(PID.TID 0000.0001)      . . .
(PID.TID 0000.0001)                -1.336511021209287E+02,      /* I =142 */
(PID.TID 0000.0001)                -1.336469399409420E+02,      /* I =143 */
(PID.TID 0000.0001)                -1.336449032499283E+02,      /* I =144 */
(PID.TID 0000.0001)                -1.336449032499283E+02,      /* I =145 */
(PID.TID 0000.0001)                -1.336469399409420E+02,      /* I =146 */
(PID.TID 0000.0001)                -1.336511021209287E+02,      /* I =147 */
(PID.TID 0000.0001)      . . .
(PID.TID 0000.0001)                 1.378136964251304E+02,      /* I =190 */
(PID.TID 0000.0001)                 1.362080546879630E+02,      /* I =191 */
(PID.TID 0000.0001)                 1.350000000000000E+02       /* I =192 */
(PID.TID 0000.0001)     ;
(PID.TID 0000.0001) yC =  /* yC(1,:,1,:) : P-point Y coord ( deg. or m if cartesian) */
(PID.TID 0000.0001)                -3.497677942598243E+01,      /* J =  1 */
(PID.TID 0000.0001)                -3.374005967394886E+01,      /* J =  2 */
(PID.TID 0000.0001)                -3.220655175667454E+01,      /* J =  3 */
(PID.TID 0000.0001)                -3.045756348838641E+01,      /* J =  4 */
(PID.TID 0000.0001)                -2.853728129852918E+01,      /* J =  5 */
(PID.TID 0000.0001)                -2.647426640173173E+01,      /* J =  6 */
(PID.TID 0000.0001)                -2.428936657094636E+01,      /* J =  7 */
(PID.TID 0000.0001)                -2.199915808312262E+01,      /* J =  8 */
(PID.TID 0000.0001)                -1.961768597440146E+01,      /* J =  9 */
(PID.TID 0000.0001)                -1.715743888281371E+01,      /* J = 10 */
(PID.TID 0000.0001)                -1.462993396899330E+01,      /* J = 11 */
(PID.TID 0000.0001)                -1.204608340464756E+01,      /* J = 12 */
(PID.TID 0000.0001)                -9.416429130284818E+00,      /* J = 13 */
(PID.TID 0000.0001)                -6.751293662992216E+00,      /* J = 14 */
(PID.TID 0000.0001)                -4.060875511835959E+00,      /* J = 15 */
(PID.TID 0000.0001)                -1.355307764409121E+00,      /* J = 16 */
(PID.TID 0000.0001)                 1.355307764409121E+00,      /* J = 17 */
(PID.TID 0000.0001)                 4.060875511835959E+00,      /* J = 18 */
(PID.TID 0000.0001)                 6.751293662992216E+00,      /* J = 19 */
(PID.TID 0000.0001)                 9.416429130284818E+00,      /* J = 20 */
(PID.TID 0000.0001)                 1.204608340464756E+01,      /* J = 21 */
(PID.TID 0000.0001)                 1.462993396899330E+01,      /* J = 22 */
(PID.TID 0000.0001)                 1.715743888281371E+01,      /* J = 23 */
(PID.TID 0000.0001)                 1.961768597440146E+01,      /* J = 24 */
(PID.TID 0000.0001)                 2.199915808312262E+01,      /* J = 25 */
(PID.TID 0000.0001)                 2.428936657094636E+01,      /* J = 26 */
(PID.TID 0000.0001)                 2.647426640173173E+01,      /* J = 27 */
(PID.TID 0000.0001)                 2.853728129852918E+01,      /* J = 28 */
(PID.TID 0000.0001)                 3.045756348838641E+01,      /* J = 29 */
(PID.TID 0000.0001)                 3.220655175667454E+01,      /* J = 30 */
(PID.TID 0000.0001)                 3.374005967394886E+01,      /* J = 31 */
(PID.TID 0000.0001)                 3.497677942598243E+01       /* J = 32 */
(PID.TID 0000.0001)     ;
(PID.TID 0000.0001) rcoord = /* P-point R coordinate (  units of r ) */
(PID.TID 0000.0001)                 9.500000000000000E+04,      /* K =  1 */
(PID.TID 0000.0001)                 7.750000000000000E+04,      /* K =  2 */
(PID.TID 0000.0001)                 5.000000000000000E+04,      /* K =  3 */
(PID.TID 0000.0001)                 2.500000000000000E+04,      /* K =  4 */
(PID.TID 0000.0001)                 7.500000000000000E+03       /* K =  5 */
(PID.TID 0000.0001)     ;
(PID.TID 0000.0001) rF =   /* W-Interf. R coordinate (  units of r ) */
(PID.TID 0000.0001)                 1.000000000000000E+05,      /* K =  1 */
(PID.TID 0000.0001)                 9.000000000000000E+04,      /* K =  2 */
(PID.TID 0000.0001)                 6.500000000000000E+04,      /* K =  3 */
(PID.TID 0000.0001)                 3.500000000000000E+04,      /* K =  4 */
(PID.TID 0000.0001)                 1.500000000000000E+04,      /* K =  5 */
(PID.TID 0000.0001)                 0.000000000000000E+00       /* K =  6 */
(PID.TID 0000.0001)     ;
(PID.TID 0000.0001) deepFacC = /* deep-model grid factor @ cell-Center (-) */
(PID.TID 0000.0001)     5 @  1.000000000000000E+00              /* K =  1:  5 */
(PID.TID 0000.0001)     ;
(PID.TID 0000.0001) deepFacF = /* deep-model grid factor @ W-Interface (-) */
(PID.TID 0000.0001)     6 @  1.000000000000000E+00              /* K =  1:  6 */
(PID.TID 0000.0001)     ;
(PID.TID 0000.0001) rVel2wUnit = /* convert units: rVel -> wSpeed (=1 if z-coord)*/
(PID.TID 0000.0001)                 8.468280180573759E-02,      /* K =  1 */
(PID.TID 0000.0001)                 9.264164924838553E-02,      /* K =  2 */
(PID.TID 0000.0001)                 1.218363765768670E-01,      /* K =  3 */
(PID.TID 0000.0001)                 2.012547327065781E-01,      /* K =  4 */
(PID.TID 0000.0001)                 4.382932217562046E-01,      /* K =  5 */
(PID.TID 0000.0001)                 1.000000000000000E+00       /* K =  6 */
(PID.TID 0000.0001)     ;
(PID.TID 0000.0001) wUnit2rVel = /* convert units: wSpeed -> rVel (=1 if z-coord)*/
(PID.TID 0000.0001)                 1.180877319451476E+01,      /* K =  1 */
(PID.TID 0000.0001)                 1.079428106162982E+01,      /* K =  2 */
(PID.TID 0000.0001)                 8.207729317763288E+00,      /* K =  3 */
(PID.TID 0000.0001)                 4.968827249682435E+00,      /* K =  4 */
(PID.TID 0000.0001)                 2.281577606865748E+00,      /* K =  5 */
(PID.TID 0000.0001)                 1.000000000000000E+00       /* K =  6 */
(PID.TID 0000.0001)     ;
(PID.TID 0000.0001) dBdrRef = /* Vertical grad. of reference buoyancy [(m/s/r)^2] */
(PID.TID 0000.0001)                 0.000000000000000E+00,      /* K =  1 */
(PID.TID 0000.0001)                 1.551846956946958E-06,      /* K =  2 */
(PID.TID 0000.0001)                 2.382518577942705E-06,      /* K =  3 */
(PID.TID 0000.0001)                 5.042981208886097E-06,      /* K =  4 */
(PID.TID 0000.0001)                 6.524166098263503E-05       /* K =  5 */
(PID.TID 0000.0001)     ;
(PID.TID 0000.0001) rotateGrid = /* use rotated grid ( True/False ) */
(PID.TID 0000.0001)                   F
(PID.TID 0000.0001)     ;
(PID.TID 0000.0001) phiEuler = /* Euler angle, rotation about original z-coordinate [rad] */
(PID.TID 0000.0001)                 0.000000000000000E+00
(PID.TID 0000.0001)     ;
(PID.TID 0000.0001) thetaEuler = /* Euler angle, rotation about new x-coordinate [rad] */
(PID.TID 0000.0001)                 0.000000000000000E+00
(PID.TID 0000.0001)     ;
(PID.TID 0000.0001) psiEuler = /* Euler angle, rotation about new z-coordinate [rad] */
(PID.TID 0000.0001)                 0.000000000000000E+00
(PID.TID 0000.0001)     ;
(PID.TID 0000.0001) dxF =  /* dxF(:,1,:,1) ( units: m ) */
(PID.TID 0000.0001)                 1.202082051331828E+05,      /* I =  1 */
(PID.TID 0000.0001)                 1.563594089971120E+05,      /* I =  2 */
(PID.TID 0000.0001)                 1.835530058121492E+05,      /* I =  3 */
(PID.TID 0000.0001)      . . .
(PID.TID 0000.0001)                 2.978501920522794E+05,      /* I = 46 */
(PID.TID 0000.0001)                 3.000967749619962E+05,      /* I = 47 */
(PID.TID 0000.0001)                 3.012190981969055E+05,      /* I = 48 */
(PID.TID 0000.0001)                 3.012190981969055E+05,      /* I = 49 */
(PID.TID 0000.0001)                 3.000967749619962E+05,      /* I = 50 */
(PID.TID 0000.0001)                 2.978501920522794E+05,      /* I = 51 */
(PID.TID 0000.0001)      . . .
(PID.TID 0000.0001)                 1.835530058121492E+05,      /* I = 94 */
(PID.TID 0000.0001)                 1.563594089971120E+05,      /* I = 95 */
(PID.TID 0000.0001)                 1.202082051331828E+05,      /* I = 96 */
(PID.TID 0000.0001)                 1.202082051331828E+05,      /* I = 97 */
(PID.TID 0000.0001)                 1.563594089971120E+05,      /* I = 98 */
(PID.TID 0000.0001)                 1.835530058121492E+05,      /* I = 99 */
(PID.TID 0000.0001)      . . .
(PID.TID 0000.0001)                 2.978501920522794E+05,      /* I =142 */
(PID.TID 0000.0001)                 3.000967749619962E+05,      /* I =143 */
(PID.TID 0000.0001)                 3.012190981969055E+05,      /* I =144 */
(PID.TID 0000.0001)                 3.012190981969055E+05,      /* I =145 */
(PID.TID 0000.0001)                 3.000967749619962E+05,      /* I =146 */
(PID.TID 0000.0001)                 2.978501920522794E+05,      /* I =147 */
(PID.TID 0000.0001)      . . .
(PID.TID 0000.0001)                 1.835530058121492E+05,      /* I =190 */
(PID.TID 0000.0001)                 1.563594089971120E+05,      /* I =191 */
(PID.TID 0000.0001)                 1.202082051331828E+05       /* I =192 */
(PID.TID 0000.0001)     ;
(PID.TID 0000.0001) dxF =  /* dxF(1,:,1,:) ( units: m ) */
(PID.TID 0000.0001)                 1.202082051331828E+05,      /* J =  1 */
(PID.TID 0000.0001)                 1.572908084538706E+05,      /* J =  2 */
(PID.TID 0000.0001)                 1.840412227747703E+05,      /* J =  3 */
(PID.TID 0000.0001)                 2.048868197919576E+05,      /* J =  4 */
(PID.TID 0000.0001)                 2.220405216043041E+05,      /* J =  5 */
(PID.TID 0000.0001)                 2.365892017348392E+05,      /* J =  6 */
(PID.TID 0000.0001)                 2.491250781852558E+05,      /* J =  7 */
(PID.TID 0000.0001)                 2.599949918261881E+05,      /* J =  8 */
(PID.TID 0000.0001)                 2.694110134598581E+05,      /* J =  9 */
(PID.TID 0000.0001)                 2.775055554645015E+05,      /* J = 10 */
(PID.TID 0000.0001)                 2.843615645344775E+05,      /* J = 11 */
(PID.TID 0000.0001)                 2.900303768613599E+05,      /* J = 12 */
(PID.TID 0000.0001)                 2.945429307892709E+05,      /* J = 13 */
(PID.TID 0000.0001)                 2.979171143158405E+05,      /* J = 14 */
(PID.TID 0000.0001)                 3.001626787528886E+05,      /* J = 15 */
(PID.TID 0000.0001)     2 @  3.012844832048790E+05,             /* J = 16: 17 */
(PID.TID 0000.0001)                 3.001626787528886E+05,      /* J = 18 */
(PID.TID 0000.0001)                 2.979171143158405E+05,      /* J = 19 */
(PID.TID 0000.0001)                 2.945429307892709E+05,      /* J = 20 */
(PID.TID 0000.0001)                 2.900303768613599E+05,      /* J = 21 */
(PID.TID 0000.0001)                 2.843615645344775E+05,      /* J = 22 */
(PID.TID 0000.0001)                 2.775055554645015E+05,      /* J = 23 */
(PID.TID 0000.0001)                 2.694110134598581E+05,      /* J = 24 */
(PID.TID 0000.0001)                 2.599949918261881E+05,      /* J = 25 */
(PID.TID 0000.0001)                 2.491250781852558E+05,      /* J = 26 */
(PID.TID 0000.0001)                 2.365892017348392E+05,      /* J = 27 */
(PID.TID 0000.0001)                 2.220405216043041E+05,      /* J = 28 */
(PID.TID 0000.0001)                 2.048868197919576E+05,      /* J = 29 */
(PID.TID 0000.0001)                 1.840412227747703E+05,      /* J = 30 */
(PID.TID 0000.0001)                 1.572908084538706E+05,      /* J = 31 */
(PID.TID 0000.0001)                 1.202082051331828E+05       /* J = 32 */
(PID.TID 0000.0001)     ;
(PID.TID 0000.0001) dyF =  /* dyF(:,1,:,1) ( units: m ) */
(PID.TID 0000.0001)                 1.202082051331828E+05,      /* I =  1 */
(PID.TID 0000.0001)                 1.572908084538706E+05,      /* I =  2 */
(PID.TID 0000.0001)                 1.840412227747703E+05,      /* I =  3 */
(PID.TID 0000.0001)      . . .
(PID.TID 0000.0001)                 2.979171143158405E+05,      /* I = 46 */
(PID.TID 0000.0001)                 3.001626787528886E+05,      /* I = 47 */
(PID.TID 0000.0001)                 3.012844832048790E+05,      /* I = 48 */
(PID.TID 0000.0001)                 3.012844832048790E+05,      /* I = 49 */
(PID.TID 0000.0001)                 3.001626787528886E+05,      /* I = 50 */
(PID.TID 0000.0001)                 2.979171143158405E+05,      /* I = 51 */
(PID.TID 0000.0001)      . . .
(PID.TID 0000.0001)                 1.840412227747703E+05,      /* I = 94 */
(PID.TID 0000.0001)                 1.572908084538706E+05,      /* I = 95 */
(PID.TID 0000.0001)                 1.202082051331828E+05,      /* I = 96 */
(PID.TID 0000.0001)                 1.202082051331828E+05,      /* I = 97 */
(PID.TID 0000.0001)                 1.572908084538706E+05,      /* I = 98 */
(PID.TID 0000.0001)                 1.840412227747703E+05,      /* I = 99 */
(PID.TID 0000.0001)      . . .
(PID.TID 0000.0001)                 2.979171143158405E+05,      /* I =142 */
(PID.TID 0000.0001)                 3.001626787528886E+05,      /* I =143 */
(PID.TID 0000.0001)                 3.012844832048790E+05,      /* I =144 */
(PID.TID 0000.0001)                 3.012844832048790E+05,      /* I =145 */
(PID.TID 0000.0001)                 3.001626787528886E+05,      /* I =146 */
(PID.TID 0000.0001)                 2.979171143158405E+05,      /* I =147 */
(PID.TID 0000.0001)      . . .
(PID.TID 0000.0001)                 1.840412227747703E+05,      /* I =190 */
(PID.TID 0000.0001)                 1.572908084538706E+05,      /* I =191 */
(PID.TID 0000.0001)                 1.202082051331828E+05       /* I =192 */
(PID.TID 0000.0001)     ;
(PID.TID 0000.0001) dyF =  /* dyF(1,:,1,:) ( units: m ) */
(PID.TID 0000.0001)                 1.202082051331828E+05,      /* J =  1 */
(PID.TID 0000.0001)                 1.563594089971120E+05,      /* J =  2 */
(PID.TID 0000.0001)                 1.835530058121492E+05,      /* J =  3 */
(PID.TID 0000.0001)                 2.045883481718707E+05,      /* J =  4 */
(PID.TID 0000.0001)                 2.218350349844185E+05,      /* J =  5 */
(PID.TID 0000.0001)                 2.364352994647058E+05,      /* J =  6 */
(PID.TID 0000.0001)                 2.490022710862746E+05,      /* J =  7 */
(PID.TID 0000.0001)                 2.598919724358304E+05,      /* J =  8 */
(PID.TID 0000.0001)                 2.693210245495156E+05,      /* J =  9 */
(PID.TID 0000.0001)                 2.774243179696503E+05,      /* J = 10 */
(PID.TID 0000.0001)                 2.842862532064524E+05,      /* J = 11 */
(PID.TID 0000.0001)                 2.899590699694043E+05,      /* J = 12 */
(PID.TID 0000.0001)                 2.944742915095688E+05,      /* J = 13 */
(PID.TID 0000.0001)                 2.978501920522794E+05,      /* J = 14 */
(PID.TID 0000.0001)                 3.000967749619962E+05,      /* J = 15 */
(PID.TID 0000.0001)     2 @  3.012190981969055E+05,             /* J = 16: 17 */
(PID.TID 0000.0001)                 3.000967749619962E+05,      /* J = 18 */
(PID.TID 0000.0001)                 2.978501920522794E+05,      /* J = 19 */
(PID.TID 0000.0001)                 2.944742915095688E+05,      /* J = 20 */
(PID.TID 0000.0001)                 2.899590699694043E+05,      /* J = 21 */
(PID.TID 0000.0001)                 2.842862532064524E+05,      /* J = 22 */
(PID.TID 0000.0001)                 2.774243179696503E+05,      /* J = 23 */
(PID.TID 0000.0001)                 2.693210245495156E+05,      /* J = 24 */
(PID.TID 0000.0001)                 2.598919724358304E+05,      /* J = 25 */
(PID.TID 0000.0001)                 2.490022710862746E+05,      /* J = 26 */
(PID.TID 0000.0001)                 2.364352994647058E+05,      /* J = 27 */
(PID.TID 0000.0001)                 2.218350349844185E+05,      /* J = 28 */
(PID.TID 0000.0001)                 2.045883481718707E+05,      /* J = 29 */
(PID.TID 0000.0001)                 1.835530058121492E+05,      /* J = 30 */
(PID.TID 0000.0001)                 1.563594089971120E+05,      /* J = 31 */
(PID.TID 0000.0001)                 1.202082051331828E+05       /* J = 32 */
(PID.TID 0000.0001)     ;
(PID.TID 0000.0001) dxG =  /* dxG(:,1,:,1) ( units: m ) */
(PID.TID 0000.0001)                 1.009837800879055E+05,      /* I =  1 */
(PID.TID 0000.0001)                 1.534505834330338E+05,      /* I =  2 */
(PID.TID 0000.0001)                 1.823321598773926E+05,      /* I =  3 */
(PID.TID 0000.0001)      . . .
(PID.TID 0000.0001)                 2.977867909042096E+05,      /* I = 46 */
(PID.TID 0000.0001)                 3.000380090330854E+05,      /* I = 47 */
(PID.TID 0000.0001)                 3.011625828699101E+05,      /* I = 48 */
(PID.TID 0000.0001)                 3.011625828699101E+05,      /* I = 49 */
(PID.TID 0000.0001)                 3.000380090330854E+05,      /* I = 50 */
(PID.TID 0000.0001)                 2.977867909042096E+05,      /* I = 51 */
(PID.TID 0000.0001)      . . .
(PID.TID 0000.0001)                 1.823321598773926E+05,      /* I = 94 */
(PID.TID 0000.0001)                 1.534505834330338E+05,      /* I = 95 */
(PID.TID 0000.0001)                 1.009837800879055E+05,      /* I = 96 */
(PID.TID 0000.0001)                 1.009837800879055E+05,      /* I = 97 */
(PID.TID 0000.0001)                 1.534505834330338E+05,      /* I = 98 */
(PID.TID 0000.0001)                 1.823321598773926E+05,      /* I = 99 */
(PID.TID 0000.0001)      . . .
(PID.TID 0000.0001)                 2.977867909042096E+05,      /* I =142 */
(PID.TID 0000.0001)                 3.000380090330854E+05,      /* I =143 */
(PID.TID 0000.0001)                 3.011625828699101E+05,      /* I =144 */
(PID.TID 0000.0001)                 3.011625828699101E+05,      /* I =145 */
(PID.TID 0000.0001)                 3.000380090330854E+05,      /* I =146 */
(PID.TID 0000.0001)                 2.977867909042096E+05,      /* I =147 */
(PID.TID 0000.0001)      . . .
(PID.TID 0000.0001)                 1.823321598773926E+05,      /* I =190 */
(PID.TID 0000.0001)                 1.534505834330338E+05,      /* I =191 */
(PID.TID 0000.0001)                 1.009837800879055E+05       /* I =192 */
(PID.TID 0000.0001)     ;
(PID.TID 0000.0001) dxG =  /* dxG(1,:,1,:) ( units: m ) */
(PID.TID 0000.0001)                 1.009837800879055E+05,      /* J =  1 */
(PID.TID 0000.0001)                 1.403701524205398E+05,      /* J =  2 */
(PID.TID 0000.0001)                 1.716197227386011E+05,      /* J =  3 */
(PID.TID 0000.0001)                 1.950254041626018E+05,      /* J =  4 */
(PID.TID 0000.0001)                 2.138410773065497E+05,      /* J =  5 */
(PID.TID 0000.0001)                 2.295958105911512E+05,      /* J =  6 */
(PID.TID 0000.0001)                 2.430829951739083E+05,      /* J =  7 */
(PID.TID 0000.0001)                 2.547526806712889E+05,      /* J =  8 */
(PID.TID 0000.0001)                 2.648750305193301E+05,      /* J =  9 */
(PID.TID 0000.0001)                 2.736173771018112E+05,      /* J = 10 */
(PID.TID 0000.0001)                 2.810845823202647E+05,      /* J = 11 */
(PID.TID 0000.0001)                 2.873420591008078E+05,      /* J = 12 */
(PID.TID 0000.0001)                 2.924298293668651E+05,      /* J = 13 */
(PID.TID 0000.0001)                 2.963715635865306E+05,      /* J = 14 */
(PID.TID 0000.0001)                 2.991805843171258E+05,      /* J = 15 */
(PID.TID 0000.0001)                 3.008638765647886E+05,      /* J = 16 */
(PID.TID 0000.0001)                 3.014246674484008E+05,      /* J = 17 */
(PID.TID 0000.0001)                 3.008638765647886E+05,      /* J = 18 */
(PID.TID 0000.0001)                 2.991805843171258E+05,      /* J = 19 */
(PID.TID 0000.0001)                 2.963715635865306E+05,      /* J = 20 */
(PID.TID 0000.0001)                 2.924298293668651E+05,      /* J = 21 */
(PID.TID 0000.0001)                 2.873420591008078E+05,      /* J = 22 */
(PID.TID 0000.0001)                 2.810845823202647E+05,      /* J = 23 */
(PID.TID 0000.0001)                 2.736173771018112E+05,      /* J = 24 */
(PID.TID 0000.0001)                 2.648750305193301E+05,      /* J = 25 */
(PID.TID 0000.0001)                 2.547526806712889E+05,      /* J = 26 */
(PID.TID 0000.0001)                 2.430829951739083E+05,      /* J = 27 */
(PID.TID 0000.0001)                 2.295958105911512E+05,      /* J = 28 */
(PID.TID 0000.0001)                 2.138410773065497E+05,      /* J = 29 */
(PID.TID 0000.0001)                 1.950254041626018E+05,      /* J = 30 */
(PID.TID 0000.0001)                 1.716197227386011E+05,      /* J = 31 */
(PID.TID 0000.0001)                 1.403701524205398E+05       /* J = 32 */
(PID.TID 0000.0001)     ;
(PID.TID 0000.0001) dyG =  /* dyG(:,1,:,1) ( units: m ) */
(PID.TID 0000.0001)                 1.009837800879055E+05,      /* I =  1 */
(PID.TID 0000.0001)                 1.403701524205398E+05,      /* I =  2 */
(PID.TID 0000.0001)                 1.716197227386011E+05,      /* I =  3 */
(PID.TID 0000.0001)      . . .
(PID.TID 0000.0001)                 2.963715635865306E+05,      /* I = 46 */
(PID.TID 0000.0001)                 2.991805843171258E+05,      /* I = 47 */
(PID.TID 0000.0001)                 3.008638765647886E+05,      /* I = 48 */
(PID.TID 0000.0001)                 3.014246674484008E+05,      /* I = 49 */
(PID.TID 0000.0001)                 3.008638765647886E+05,      /* I = 50 */
(PID.TID 0000.0001)                 2.991805843171258E+05,      /* I = 51 */
(PID.TID 0000.0001)      . . .
(PID.TID 0000.0001)                 1.950254041626018E+05,      /* I = 94 */
(PID.TID 0000.0001)                 1.716197227386011E+05,      /* I = 95 */
(PID.TID 0000.0001)                 1.403701524205398E+05,      /* I = 96 */
(PID.TID 0000.0001)                 1.009837800879055E+05,      /* I = 97 */
(PID.TID 0000.0001)                 1.403701524205398E+05,      /* I = 98 */
(PID.TID 0000.0001)                 1.716197227386011E+05,      /* I = 99 */
(PID.TID 0000.0001)      . . .
(PID.TID 0000.0001)                 2.963715635865306E+05,      /* I =142 */
(PID.TID 0000.0001)                 2.991805843171258E+05,      /* I =143 */
(PID.TID 0000.0001)                 3.008638765647886E+05,      /* I =144 */
(PID.TID 0000.0001)                 3.014246674484008E+05,      /* I =145 */
(PID.TID 0000.0001)                 3.008638765647886E+05,      /* I =146 */
(PID.TID 0000.0001)                 2.991805843171258E+05,      /* I =147 */
(PID.TID 0000.0001)      . . .
(PID.TID 0000.0001)                 1.950254041626018E+05,      /* I =190 */
(PID.TID 0000.0001)                 1.716197227386011E+05,      /* I =191 */
(PID.TID 0000.0001)                 1.403701524205398E+05       /* I =192 */
(PID.TID 0000.0001)     ;
(PID.TID 0000.0001) dyG =  /* dyG(1,:,1,:) ( units: m ) */
(PID.TID 0000.0001)                 1.009837800879055E+05,      /* J =  1 */
(PID.TID 0000.0001)                 1.534505834330338E+05,      /* J =  2 */
(PID.TID 0000.0001)                 1.823321598773926E+05,      /* J =  3 */
(PID.TID 0000.0001)                 2.038999045536999E+05,      /* J =  4 */
(PID.TID 0000.0001)                 2.213884732245467E+05,      /* J =  5 */
(PID.TID 0000.0001)                 2.361211699596122E+05,      /* J =  6 */
(PID.TID 0000.0001)                 2.487693460283865E+05,      /* J =  7 */
(PID.TID 0000.0001)                 2.597126963772147E+05,      /* J =  8 */
(PID.TID 0000.0001)                 2.691790288994575E+05,      /* J =  9 */
(PID.TID 0000.0001)                 2.773091043277394E+05,      /* J = 10 */
(PID.TID 0000.0001)                 2.841906470085516E+05,      /* J = 11 */
(PID.TID 0000.0001)                 2.898778860929753E+05,      /* J = 12 */
(PID.TID 0000.0001)                 2.944035815526416E+05,      /* J = 13 */
(PID.TID 0000.0001)                 2.977867909042096E+05,      /* J = 14 */
(PID.TID 0000.0001)                 3.000380090330854E+05,      /* J = 15 */
(PID.TID 0000.0001)     2 @  3.011625828699101E+05,             /* J = 16: 17 */
(PID.TID 0000.0001)                 3.000380090330854E+05,      /* J = 18 */
(PID.TID 0000.0001)                 2.977867909042096E+05,      /* J = 19 */
(PID.TID 0000.0001)                 2.944035815526416E+05,      /* J = 20 */
(PID.TID 0000.0001)                 2.898778860929753E+05,      /* J = 21 */
(PID.TID 0000.0001)                 2.841906470085516E+05,      /* J = 22 */
(PID.TID 0000.0001)                 2.773091043277394E+05,      /* J = 23 */
(PID.TID 0000.0001)                 2.691790288994575E+05,      /* J = 24 */
(PID.TID 0000.0001)                 2.597126963772147E+05,      /* J = 25 */
(PID.TID 0000.0001)                 2.487693460283865E+05,      /* J = 26 */
(PID.TID 0000.0001)                 2.361211699596122E+05,      /* J = 27 */
(PID.TID 0000.0001)                 2.213884732245467E+05,      /* J = 28 */
(PID.TID 0000.0001)                 2.038999045536999E+05,      /* J = 29 */
(PID.TID 0000.0001)                 1.823321598773926E+05,      /* J = 30 */
(PID.TID 0000.0001)                 1.534505834330338E+05,      /* J = 31 */
(PID.TID 0000.0001)                 1.009837800879055E+05       /* J = 32 */
(PID.TID 0000.0001)     ;
(PID.TID 0000.0001) dxC =  /* dxC(:,1,:,1) ( units: m ) */
(PID.TID 0000.0001)                 1.114203141013064E+05,      /* I =  1 */
(PID.TID 0000.0001)                 1.391343389937106E+05,      /* I =  2 */
(PID.TID 0000.0001)                 1.709574999026266E+05,      /* I =  3 */
(PID.TID 0000.0001)      . . .
(PID.TID 0000.0001)                 2.963038832565530E+05,      /* I = 46 */
(PID.TID 0000.0001)                 2.991142470004740E+05,      /* I = 47 */
(PID.TID 0000.0001)                 3.007982711627968E+05,      /* I = 48 */
(PID.TID 0000.0001)                 3.013593857228136E+05,      /* I = 49 */
(PID.TID 0000.0001)                 3.007982711627968E+05,      /* I = 50 */
(PID.TID 0000.0001)                 2.991142470004740E+05,      /* I = 51 */
(PID.TID 0000.0001)      . . .
(PID.TID 0000.0001)                 1.946503699269892E+05,      /* I = 94 */
(PID.TID 0000.0001)                 1.709574999026266E+05,      /* I = 95 */
(PID.TID 0000.0001)                 1.391343389937106E+05,      /* I = 96 */
(PID.TID 0000.0001)                 1.114203141013064E+05,      /* I = 97 */
(PID.TID 0000.0001)                 1.391343389937106E+05,      /* I = 98 */
(PID.TID 0000.0001)                 1.709574999026266E+05,      /* I = 99 */
(PID.TID 0000.0001)      . . .
(PID.TID 0000.0001)                 2.963038832565530E+05,      /* I =142 */
(PID.TID 0000.0001)                 2.991142470004740E+05,      /* I =143 */
(PID.TID 0000.0001)                 3.007982711627968E+05,      /* I =144 */
(PID.TID 0000.0001)                 3.013593857228136E+05,      /* I =145 */
(PID.TID 0000.0001)                 3.007982711627968E+05,      /* I =146 */
(PID.TID 0000.0001)                 2.991142470004740E+05,      /* I =147 */
(PID.TID 0000.0001)      . . .
(PID.TID 0000.0001)                 1.946503699269892E+05,      /* I =190 */
(PID.TID 0000.0001)                 1.709574999026266E+05,      /* I =191 */
(PID.TID 0000.0001)                 1.391343389937106E+05       /* I =192 */
(PID.TID 0000.0001)     ;
(PID.TID 0000.0001) dxC =  /* dxC(1,:,1,:) ( units: m ) */
(PID.TID 0000.0001)                 1.114203141013064E+05,      /* J =  1 */
(PID.TID 0000.0001)                 1.549545757850771E+05,      /* J =  2 */
(PID.TID 0000.0001)                 1.829777599966776E+05,      /* J =  3 */
(PID.TID 0000.0001)                 2.042717761866506E+05,      /* J =  4 */
(PID.TID 0000.0001)                 2.216367828252819E+05,      /* J =  5 */
(PID.TID 0000.0001)                 2.363029564123586E+05,      /* J =  6 */
(PID.TID 0000.0001)                 2.489113743322025E+05,      /* J =  7 */
(PID.TID 0000.0001)                 2.598293319150326E+05,      /* J =  8 */
(PID.TID 0000.0001)                 2.692787333338535E+05,      /* J =  9 */
(PID.TID 0000.0001)                 2.773972106720365E+05,      /* J = 10 */
(PID.TID 0000.0001)                 2.842706922224557E+05,      /* J = 11 */
(PID.TID 0000.0001)                 2.899523122489403E+05,      /* J = 12 */
(PID.TID 0000.0001)                 2.944741346384699E+05,      /* J = 13 */
(PID.TID 0000.0001)                 2.978547649292580E+05,      /* J = 14 */
(PID.TID 0000.0001)                 3.001044073506459E+05,      /* J = 15 */
(PID.TID 0000.0001)     2 @  3.012281885409289E+05,             /* J = 16: 17 */
(PID.TID 0000.0001)                 3.001044073506459E+05,      /* J = 18 */
(PID.TID 0000.0001)                 2.978547649292580E+05,      /* J = 19 */
(PID.TID 0000.0001)                 2.944741346384699E+05,      /* J = 20 */
(PID.TID 0000.0001)                 2.899523122489403E+05,      /* J = 21 */
(PID.TID 0000.0001)                 2.842706922224557E+05,      /* J = 22 */
(PID.TID 0000.0001)                 2.773972106720365E+05,      /* J = 23 */
(PID.TID 0000.0001)                 2.692787333338535E+05,      /* J = 24 */
(PID.TID 0000.0001)                 2.598293319150326E+05,      /* J = 25 */
(PID.TID 0000.0001)                 2.489113743322025E+05,      /* J = 26 */
(PID.TID 0000.0001)                 2.363029564123586E+05,      /* J = 27 */
(PID.TID 0000.0001)                 2.216367828252819E+05,      /* J = 28 */
(PID.TID 0000.0001)                 2.042717761866506E+05,      /* J = 29 */
(PID.TID 0000.0001)                 1.829777599966776E+05,      /* J = 30 */
(PID.TID 0000.0001)                 1.549545757850771E+05,      /* J = 31 */
(PID.TID 0000.0001)                 1.114203141013064E+05       /* J = 32 */
(PID.TID 0000.0001)     ;
(PID.TID 0000.0001) dyC =  /* dyC(:,1,:,1) ( units: m ) */
(PID.TID 0000.0001)                 1.114203141013064E+05,      /* I =  1 */
(PID.TID 0000.0001)                 1.549545757850771E+05,      /* I =  2 */
(PID.TID 0000.0001)                 1.829777599966776E+05,      /* I =  3 */
(PID.TID 0000.0001)      . . .
(PID.TID 0000.0001)                 2.978547649292580E+05,      /* I = 46 */
(PID.TID 0000.0001)                 3.001044073506459E+05,      /* I = 47 */
(PID.TID 0000.0001)                 3.012281885409289E+05,      /* I = 48 */
(PID.TID 0000.0001)                 3.012281885409289E+05,      /* I = 49 */
(PID.TID 0000.0001)                 3.001044073506459E+05,      /* I = 50 */
(PID.TID 0000.0001)                 2.978547649292580E+05,      /* I = 51 */
(PID.TID 0000.0001)      . . .
(PID.TID 0000.0001)                 1.829777599966776E+05,      /* I = 94 */
(PID.TID 0000.0001)                 1.549545757850771E+05,      /* I = 95 */
(PID.TID 0000.0001)                 1.114203141013064E+05,      /* I = 96 */
(PID.TID 0000.0001)                 1.114203141013064E+05,      /* I = 97 */
(PID.TID 0000.0001)                 1.549545757850771E+05,      /* I = 98 */
(PID.TID 0000.0001)                 1.829777599966776E+05,      /* I = 99 */
(PID.TID 0000.0001)      . . .
(PID.TID 0000.0001)                 2.978547649292580E+05,      /* I =142 */
(PID.TID 0000.0001)                 3.001044073506459E+05,      /* I =143 */
(PID.TID 0000.0001)                 3.012281885409289E+05,      /* I =144 */
(PID.TID 0000.0001)                 3.012281885409289E+05,      /* I =145 */
(PID.TID 0000.0001)                 3.001044073506459E+05,      /* I =146 */
(PID.TID 0000.0001)                 2.978547649292580E+05,      /* I =147 */
(PID.TID 0000.0001)      . . .
(PID.TID 0000.0001)                 1.829777599966776E+05,      /* I =190 */
(PID.TID 0000.0001)                 1.549545757850771E+05,      /* I =191 */
(PID.TID 0000.0001)                 1.114203141013064E+05       /* I =192 */
(PID.TID 0000.0001)     ;
(PID.TID 0000.0001) dyC =  /* dyC(1,:,1,:) ( units: m ) */
(PID.TID 0000.0001)                 1.114203141013064E+05,      /* J =  1 */
(PID.TID 0000.0001)                 1.391343389937106E+05,      /* J =  2 */
(PID.TID 0000.0001)                 1.709574999026266E+05,      /* J =  3 */
(PID.TID 0000.0001)                 1.946503699269892E+05,      /* J =  4 */
(PID.TID 0000.0001)                 2.135964483342134E+05,      /* J =  5 */
(PID.TID 0000.0001)                 2.294195678257306E+05,      /* J =  6 */
(PID.TID 0000.0001)                 2.429464709770498E+05,      /* J =  7 */
(PID.TID 0000.0001)                 2.546408290696998E+05,      /* J =  8 */
(PID.TID 0000.0001)                 2.647791839299727E+05,      /* J =  9 */
(PID.TID 0000.0001)                 2.735321911346108E+05,      /* J = 10 */
(PID.TID 0000.0001)                 2.810065951609633E+05,      /* J = 11 */
(PID.TID 0000.0001)                 2.872689479506990E+05,      /* J = 12 */
(PID.TID 0000.0001)                 2.923599955312932E+05,      /* J = 13 */
(PID.TID 0000.0001)                 2.963038832565530E+05,      /* J = 14 */
(PID.TID 0000.0001)                 2.991142470004740E+05,      /* J = 15 */
(PID.TID 0000.0001)                 3.007982711627968E+05,      /* J = 16 */
(PID.TID 0000.0001)                 3.013593857228136E+05,      /* J = 17 */
(PID.TID 0000.0001)                 3.007982711627968E+05,      /* J = 18 */
(PID.TID 0000.0001)                 2.991142470004740E+05,      /* J = 19 */
(PID.TID 0000.0001)                 2.963038832565530E+05,      /* J = 20 */
(PID.TID 0000.0001)                 2.923599955312932E+05,      /* J = 21 */
(PID.TID 0000.0001)                 2.872689479506990E+05,      /* J = 22 */
(PID.TID 0000.0001)                 2.810065951609633E+05,      /* J = 23 */
(PID.TID 0000.0001)                 2.735321911346108E+05,      /* J = 24 */
(PID.TID 0000.0001)                 2.647791839299727E+05,      /* J = 25 */
(PID.TID 0000.0001)                 2.546408290696998E+05,      /* J = 26 */
(PID.TID 0000.0001)                 2.429464709770498E+05,      /* J = 27 */
(PID.TID 0000.0001)                 2.294195678257306E+05,      /* J = 28 */
(PID.TID 0000.0001)                 2.135964483342134E+05,      /* J = 29 */
(PID.TID 0000.0001)                 1.946503699269892E+05,      /* J = 30 */
(PID.TID 0000.0001)                 1.709574999026266E+05,      /* J = 31 */
(PID.TID 0000.0001)                 1.391343389937106E+05       /* J = 32 */
(PID.TID 0000.0001)     ;
(PID.TID 0000.0001) dxV =  /* dxV(:,1,:,1) ( units: m ) */
(PID.TID 0000.0001)                 8.015229982413632E+04,      /* I =  1 */
(PID.TID 0000.0001)                 1.333130744933864E+05,      /* I =  2 */
(PID.TID 0000.0001)                 1.691744868129062E+05,      /* I =  3 */
(PID.TID 0000.0001)      . . .
(PID.TID 0000.0001)                 2.962371870847826E+05,      /* I = 46 */
(PID.TID 0000.0001)                 2.990534755671296E+05,      /* I = 47 */
(PID.TID 0000.0001)                 3.007409169495504E+05,      /* I = 48 */
(PID.TID 0000.0001)                 3.013031486919771E+05,      /* I = 49 */
(PID.TID 0000.0001)                 3.007409169495504E+05,      /* I = 50 */
(PID.TID 0000.0001)                 2.990534755671296E+05,      /* I = 51 */
(PID.TID 0000.0001)      . . .
(PID.TID 0000.0001)                 1.937548202849060E+05,      /* I = 94 */
(PID.TID 0000.0001)                 1.691744868129062E+05,      /* I = 95 */
(PID.TID 0000.0001)                 1.333130744933864E+05,      /* I = 96 */
(PID.TID 0000.0001)                 8.015229982413632E+04,      /* I = 97 */
(PID.TID 0000.0001)                 1.333130744933864E+05,      /* I = 98 */
(PID.TID 0000.0001)                 1.691744868129062E+05,      /* I = 99 */
(PID.TID 0000.0001)      . . .
(PID.TID 0000.0001)                 2.962371870847826E+05,      /* I =142 */
(PID.TID 0000.0001)                 2.990534755671296E+05,      /* I =143 */
(PID.TID 0000.0001)                 3.007409169495504E+05,      /* I =144 */
(PID.TID 0000.0001)                 3.013031486919771E+05,      /* I =145 */
(PID.TID 0000.0001)                 3.007409169495504E+05,      /* I =146 */
(PID.TID 0000.0001)                 2.990534755671296E+05,      /* I =147 */
(PID.TID 0000.0001)      . . .
(PID.TID 0000.0001)                 1.937548202849060E+05,      /* I =190 */
(PID.TID 0000.0001)                 1.691744868129062E+05,      /* I =191 */
(PID.TID 0000.0001)                 1.333130744933864E+05       /* I =192 */
(PID.TID 0000.0001)     ;
(PID.TID 0000.0001) dxV =  /* dxV(1,:,1,:) ( units: m ) */
(PID.TID 0000.0001)                 8.015229982413632E+04,      /* J =  1 */
(PID.TID 0000.0001)                 1.362652340208229E+05,      /* J =  2 */
(PID.TID 0000.0001)                 1.701080315742101E+05,      /* J =  3 */
(PID.TID 0000.0001)                 1.942331448101592E+05,      /* J =  4 */
(PID.TID 0000.0001)                 2.133486626971531E+05,      /* J =  5 */
(PID.TID 0000.0001)                 2.292584591272880E+05,      /* J =  6 */
(PID.TID 0000.0001)                 2.428369969078989E+05,      /* J =  7 */
(PID.TID 0000.0001)                 2.545652950875683E+05,      /* J =  8 */
(PID.TID 0000.0001)                 2.647274964828301E+05,      /* J =  9 */
(PID.TID 0000.0001)                 2.734980225206389E+05,      /* J = 10 */
(PID.TID 0000.0001)                 2.809856491525217E+05,      /* J = 11 */
(PID.TID 0000.0001)                 2.872580915202295E+05,      /* J = 12 */
(PID.TID 0000.0001)                 2.923567890694162E+05,      /* J = 13 */
(PID.TID 0000.0001)                 2.963063101754721E+05,      /* J = 14 */
(PID.TID 0000.0001)                 2.991205495886625E+05,      /* J = 15 */
(PID.TID 0000.0001)                 3.008068453676764E+05,      /* J = 16 */
(PID.TID 0000.0001)                 3.013686170436881E+05,      /* J = 17 */
(PID.TID 0000.0001)                 3.008068453676764E+05,      /* J = 18 */
(PID.TID 0000.0001)                 2.991205495886625E+05,      /* J = 19 */
(PID.TID 0000.0001)                 2.963063101754721E+05,      /* J = 20 */
(PID.TID 0000.0001)                 2.923567890694162E+05,      /* J = 21 */
(PID.TID 0000.0001)                 2.872580915202295E+05,      /* J = 22 */
(PID.TID 0000.0001)                 2.809856491525217E+05,      /* J = 23 */
(PID.TID 0000.0001)                 2.734980225206389E+05,      /* J = 24 */
(PID.TID 0000.0001)                 2.647274964828301E+05,      /* J = 25 */
(PID.TID 0000.0001)                 2.545652950875683E+05,      /* J = 26 */
(PID.TID 0000.0001)                 2.428369969078989E+05,      /* J = 27 */
(PID.TID 0000.0001)                 2.292584591272880E+05,      /* J = 28 */
(PID.TID 0000.0001)                 2.133486626971531E+05,      /* J = 29 */
(PID.TID 0000.0001)                 1.942331448101592E+05,      /* J = 30 */
(PID.TID 0000.0001)                 1.701080315742101E+05,      /* J = 31 */
(PID.TID 0000.0001)                 1.362652340208229E+05       /* J = 32 */
(PID.TID 0000.0001)     ;
(PID.TID 0000.0001) dyU =  /* dyU(:,1,:,1) ( units: m ) */
(PID.TID 0000.0001)                 8.015229982413632E+04,      /* I =  1 */
(PID.TID 0000.0001)                 1.362652340208229E+05,      /* I =  2 */
(PID.TID 0000.0001)                 1.701080315742101E+05,      /* I =  3 */
(PID.TID 0000.0001)      . . .
(PID.TID 0000.0001)                 2.963063101754721E+05,      /* I = 46 */
(PID.TID 0000.0001)                 2.991205495886625E+05,      /* I = 47 */
(PID.TID 0000.0001)                 3.008068453676764E+05,      /* I = 48 */
(PID.TID 0000.0001)                 3.013686170436881E+05,      /* I = 49 */
(PID.TID 0000.0001)                 3.008068453676764E+05,      /* I = 50 */
(PID.TID 0000.0001)                 2.991205495886625E+05,      /* I = 51 */
(PID.TID 0000.0001)      . . .
(PID.TID 0000.0001)                 1.942331448101592E+05,      /* I = 94 */
(PID.TID 0000.0001)                 1.701080315742101E+05,      /* I = 95 */
(PID.TID 0000.0001)                 1.362652340208229E+05,      /* I = 96 */
(PID.TID 0000.0001)                 8.015229982413632E+04,      /* I = 97 */
(PID.TID 0000.0001)                 1.362652340208229E+05,      /* I = 98 */
(PID.TID 0000.0001)                 1.701080315742101E+05,      /* I = 99 */
(PID.TID 0000.0001)      . . .
(PID.TID 0000.0001)                 2.963063101754721E+05,      /* I =142 */
(PID.TID 0000.0001)                 2.991205495886625E+05,      /* I =143 */
(PID.TID 0000.0001)                 3.008068453676764E+05,      /* I =144 */
(PID.TID 0000.0001)                 3.013686170436881E+05,      /* I =145 */
(PID.TID 0000.0001)                 3.008068453676764E+05,      /* I =146 */
(PID.TID 0000.0001)                 2.991205495886625E+05,      /* I =147 */
(PID.TID 0000.0001)      . . .
(PID.TID 0000.0001)                 1.942331448101592E+05,      /* I =190 */
(PID.TID 0000.0001)                 1.701080315742101E+05,      /* I =191 */
(PID.TID 0000.0001)                 1.362652340208229E+05       /* I =192 */
(PID.TID 0000.0001)     ;
(PID.TID 0000.0001) dyU =  /* dyU(1,:,1,:) ( units: m ) */
(PID.TID 0000.0001)                 8.015229982413632E+04,      /* J =  1 */
(PID.TID 0000.0001)                 1.333130744933864E+05,      /* J =  2 */
(PID.TID 0000.0001)                 1.691744868129062E+05,      /* J =  3 */
(PID.TID 0000.0001)                 1.937548202849060E+05,      /* J =  4 */
(PID.TID 0000.0001)                 2.130490056267208E+05,      /* J =  5 */
(PID.TID 0000.0001)                 2.290479919481738E+05,      /* J =  6 */
(PID.TID 0000.0001)                 2.426774358027003E+05,      /* J =  7 */
(PID.TID 0000.0001)                 2.544372984215561E+05,      /* J =  8 */
(PID.TID 0000.0001)                 2.646201463834826E+05,      /* J =  9 */
(PID.TID 0000.0001)                 2.734046499619031E+05,      /* J = 10 */
(PID.TID 0000.0001)                 2.809019351693761E+05,      /* J = 11 */
(PID.TID 0000.0001)                 2.871811105274442E+05,      /* J = 12 */
(PID.TID 0000.0001)                 2.922844849381675E+05,      /* J = 13 */
(PID.TID 0000.0001)                 2.962371870847826E+05,      /* J = 14 */
(PID.TID 0000.0001)                 2.990534755671296E+05,      /* J = 15 */
(PID.TID 0000.0001)                 3.007409169495504E+05,      /* J = 16 */
(PID.TID 0000.0001)                 3.013031486919771E+05,      /* J = 17 */
(PID.TID 0000.0001)                 3.007409169495504E+05,      /* J = 18 */
(PID.TID 0000.0001)                 2.990534755671296E+05,      /* J = 19 */
(PID.TID 0000.0001)                 2.962371870847826E+05,      /* J = 20 */
(PID.TID 0000.0001)                 2.922844849381675E+05,      /* J = 21 */
(PID.TID 0000.0001)                 2.871811105274442E+05,      /* J = 22 */
(PID.TID 0000.0001)                 2.809019351693761E+05,      /* J = 23 */
(PID.TID 0000.0001)                 2.734046499619031E+05,      /* J = 24 */
(PID.TID 0000.0001)                 2.646201463834826E+05,      /* J = 25 */
(PID.TID 0000.0001)                 2.544372984215561E+05,      /* J = 26 */
(PID.TID 0000.0001)                 2.426774358027003E+05,      /* J = 27 */
(PID.TID 0000.0001)                 2.290479919481738E+05,      /* J = 28 */
(PID.TID 0000.0001)                 2.130490056267208E+05,      /* J = 29 */
(PID.TID 0000.0001)                 1.937548202849060E+05,      /* J = 30 */
(PID.TID 0000.0001)                 1.691744868129062E+05,      /* J = 31 */
(PID.TID 0000.0001)                 1.333130744933864E+05       /* J = 32 */
(PID.TID 0000.0001)     ;
(PID.TID 0000.0001) rA  =  /* rA (:,1,:,1) ( units: m^2 ) */
(PID.TID 0000.0001)                 1.401900702255611E+10,      /* I =  1 */
(PID.TID 0000.0001)                 2.459906945574446E+10,      /* I =  2 */
(PID.TID 0000.0001)                 3.378518544307869E+10,      /* I =  3 */
(PID.TID 0000.0001)      . . .
(PID.TID 0000.0001)                 8.874277443041928E+10,      /* I = 46 */
(PID.TID 0000.0001)                 9.008620045350865E+10,      /* I = 47 */
(PID.TID 0000.0001)                 9.076111290418457E+10,      /* I = 48 */
(PID.TID 0000.0001)                 9.076111290422060E+10,      /* I = 49 */
(PID.TID 0000.0001)                 9.008620045354469E+10,      /* I = 50 */
(PID.TID 0000.0001)                 8.874277443041928E+10,      /* I = 51 */
(PID.TID 0000.0001)      . . .
(PID.TID 0000.0001)                 3.378518544304265E+10,      /* I = 94 */
(PID.TID 0000.0001)                 2.459906945574446E+10,      /* I = 95 */
(PID.TID 0000.0001)                 1.401900702259215E+10,      /* I = 96 */
(PID.TID 0000.0001)                 1.401900702255611E+10,      /* I = 97 */
(PID.TID 0000.0001)                 2.459906945574446E+10,      /* I = 98 */
(PID.TID 0000.0001)                 3.378518544307869E+10,      /* I = 99 */
(PID.TID 0000.0001)      . . .
(PID.TID 0000.0001)                 8.874277443041928E+10,      /* I =142 */
(PID.TID 0000.0001)                 9.008620045350865E+10,      /* I =143 */
(PID.TID 0000.0001)                 9.076111290418457E+10,      /* I =144 */
(PID.TID 0000.0001)                 9.076111290422060E+10,      /* I =145 */
(PID.TID 0000.0001)                 9.008620045354469E+10,      /* I =146 */
(PID.TID 0000.0001)                 8.874277443041928E+10,      /* I =147 */
(PID.TID 0000.0001)      . . .
(PID.TID 0000.0001)                 3.378518544304265E+10,      /* I =190 */
(PID.TID 0000.0001)                 2.459906945574446E+10,      /* I =191 */
(PID.TID 0000.0001)                 1.401900702259215E+10       /* I =192 */
(PID.TID 0000.0001)     ;
(PID.TID 0000.0001) rA  =  /* rA (1,:,1,:) ( units: m^2 ) */
(PID.TID 0000.0001)                 1.401900702255611E+10,      /* J =  1 */
(PID.TID 0000.0001)                 2.459906945574446E+10,      /* J =  2 */
(PID.TID 0000.0001)                 3.378518544307869E+10,      /* J =  3 */
(PID.TID 0000.0001)                 4.192037169898667E+10,      /* J =  4 */
(PID.TID 0000.0001)                 4.925938996118163E+10,      /* J =  5 */
(PID.TID 0000.0001)                 5.594154126607553E+10,      /* J =  6 */
(PID.TID 0000.0001)                 6.203683527776127E+10,      /* J =  7 */
(PID.TID 0000.0001)                 6.757541173817516E+10,      /* J =  8 */
(PID.TID 0000.0001)                 7.256353271748119E+10,      /* J =  9 */
(PID.TID 0000.0001)                 7.699293007098555E+10,      /* J = 10 */
(PID.TID 0000.0001)                 8.084683449728902E+10,      /* J = 11 */
(PID.TID 0000.0001)                 8.410423102799828E+10,      /* J = 12 */
(PID.TID 0000.0001)                 8.674306976737517E+10,      /* J = 13 */
(PID.TID 0000.0001)                 8.874277443041928E+10,      /* J = 14 */
(PID.TID 0000.0001)                 9.008620045350865E+10,      /* J = 15 */
(PID.TID 0000.0001)                 9.076111290418457E+10,      /* J = 16 */
(PID.TID 0000.0001)                 9.076111290422060E+10,      /* J = 17 */
(PID.TID 0000.0001)                 9.008620045354469E+10,      /* J = 18 */
(PID.TID 0000.0001)                 8.874277443041928E+10,      /* J = 19 */
(PID.TID 0000.0001)                 8.674306976737517E+10,      /* J = 20 */
(PID.TID 0000.0001)                 8.410423102799828E+10,      /* J = 21 */
(PID.TID 0000.0001)                 8.084683449728902E+10,      /* J = 22 */
(PID.TID 0000.0001)                 7.699293007098555E+10,      /* J = 23 */
(PID.TID 0000.0001)                 7.256353271748119E+10,      /* J = 24 */
(PID.TID 0000.0001)                 6.757541173817516E+10,      /* J = 25 */
(PID.TID 0000.0001)                 6.203683527772523E+10,      /* J = 26 */
(PID.TID 0000.0001)                 5.594154126607553E+10,      /* J = 27 */
(PID.TID 0000.0001)                 4.925938996118163E+10,      /* J = 28 */
(PID.TID 0000.0001)                 4.192037169898667E+10,      /* J = 29 */
(PID.TID 0000.0001)                 3.378518544307869E+10,      /* J = 30 */
(PID.TID 0000.0001)                 2.459906945574446E+10,      /* J = 31 */
(PID.TID 0000.0001)                 1.401900702259215E+10       /* J = 32 */
(PID.TID 0000.0001)     ;
(PID.TID 0000.0001) rAw =  /* rAw(:,1,:,1) ( units: m^2 ) */
(PID.TID 0000.0001)                 1.216690346714270E+10,      /* I =  1 */
(PID.TID 0000.0001)                 1.974052138506315E+10,      /* I =  2 */
(PID.TID 0000.0001)                 2.943712825252015E+10,      /* I =  3 */
(PID.TID 0000.0001)      . . .
(PID.TID 0000.0001)                 8.781353403175085E+10,      /* I = 46 */
(PID.TID 0000.0001)                 8.948571540392021E+10,      /* I = 47 */
(PID.TID 0000.0001)                 9.049530583086168E+10,      /* I = 48 */
(PID.TID 0000.0001)                 9.083293515008307E+10,      /* I = 49 */
(PID.TID 0000.0001)                 9.049530583087070E+10,      /* I = 50 */
(PID.TID 0000.0001)                 8.948571540391121E+10,      /* I = 51 */
(PID.TID 0000.0001)      . . .
(PID.TID 0000.0001)                 3.801790263325260E+10,      /* I = 94 */
(PID.TID 0000.0001)                 2.943712825251114E+10,      /* I = 95 */
(PID.TID 0000.0001)                 1.974052138509018E+10,      /* I = 96 */
(PID.TID 0000.0001)                 1.216690346714270E+10,      /* I = 97 */
(PID.TID 0000.0001)                 1.974052138506315E+10,      /* I = 98 */
(PID.TID 0000.0001)                 2.943712825252015E+10,      /* I = 99 */
(PID.TID 0000.0001)      . . .
(PID.TID 0000.0001)                 8.781353403175085E+10,      /* I =142 */
(PID.TID 0000.0001)                 8.948571540392021E+10,      /* I =143 */
(PID.TID 0000.0001)                 9.049530583086168E+10,      /* I =144 */
(PID.TID 0000.0001)                 9.083293515008307E+10,      /* I =145 */
(PID.TID 0000.0001)                 9.049530583087070E+10,      /* I =146 */
(PID.TID 0000.0001)                 8.948571540391121E+10,      /* I =147 */
(PID.TID 0000.0001)      . . .
(PID.TID 0000.0001)                 3.801790263325260E+10,      /* I =190 */
(PID.TID 0000.0001)                 2.943712825251114E+10,      /* I =191 */
(PID.TID 0000.0001)                 1.974052138509018E+10       /* I =192 */
(PID.TID 0000.0001)     ;
(PID.TID 0000.0001) rAw =  /* rAw(1,:,1,:) ( units: m^2 ) */
(PID.TID 0000.0001)                 1.216690346714270E+10,      /* J =  1 */
(PID.TID 0000.0001)                 2.390126200743558E+10,      /* J =  2 */
(PID.TID 0000.0001)                 3.341968103208270E+10,      /* J =  3 */
(PID.TID 0000.0001)                 4.168532893152940E+10,      /* J =  4 */
(PID.TID 0000.0001)                 4.909074590409593E+10,      /* J =  5 */
(PID.TID 0000.0001)                 5.581203765722643E+10,      /* J =  6 */
(PID.TID 0000.0001)                 6.193257577506788E+10,      /* J =  7 */
(PID.TID 0000.0001)                 6.748840226738273E+10,      /* J =  8 */
(PID.TID 0000.0001)                 7.248875782324815E+10,      /* J =  9 */
(PID.TID 0000.0001)                 7.692702995909871E+10,      /* J = 10 */
(PID.TID 0000.0001)                 8.078743937057304E+10,      /* J = 11 */
(PID.TID 0000.0001)                 8.404959656062837E+10,      /* J = 12 */
(PID.TID 0000.0001)                 8.669186205742538E+10,      /* J = 13 */
(PID.TID 0000.0001)                 8.869393350723613E+10,      /* J = 14 */
(PID.TID 0000.0001)                 9.003884657168852E+10,      /* J = 15 */
(PID.TID 0000.0001)     2 @  9.071447638299399E+10,             /* J = 16: 17 */
(PID.TID 0000.0001)                 9.003884657168852E+10,      /* J = 18 */
(PID.TID 0000.0001)                 8.869393350723613E+10,      /* J = 19 */
(PID.TID 0000.0001)                 8.669186205742538E+10,      /* J = 20 */
(PID.TID 0000.0001)                 8.404959656062837E+10,      /* J = 21 */
(PID.TID 0000.0001)                 8.078743937057304E+10,      /* J = 22 */
(PID.TID 0000.0001)                 7.692702995909871E+10,      /* J = 23 */
(PID.TID 0000.0001)                 7.248875782324815E+10,      /* J = 24 */
(PID.TID 0000.0001)                 6.748840226738273E+10,      /* J = 25 */
(PID.TID 0000.0001)                 6.193257577506788E+10,      /* J = 26 */
(PID.TID 0000.0001)                 5.581203765722643E+10,      /* J = 27 */
(PID.TID 0000.0001)                 4.909074590409593E+10,      /* J = 28 */
(PID.TID 0000.0001)                 4.168532893152940E+10,      /* J = 29 */
(PID.TID 0000.0001)                 3.341968103208270E+10,      /* J = 30 */
(PID.TID 0000.0001)                 2.390126200743558E+10,      /* J = 31 */
(PID.TID 0000.0001)                 1.216690346714270E+10       /* J = 32 */
(PID.TID 0000.0001)     ;
(PID.TID 0000.0001) rAs =  /* rAs(:,1,:,1) ( units: m^2 ) */
(PID.TID 0000.0001)                 1.216690346714270E+10,      /* I =  1 */
(PID.TID 0000.0001)                 2.390126200743558E+10,      /* I =  2 */
(PID.TID 0000.0001)                 3.341968103208270E+10,      /* I =  3 */
(PID.TID 0000.0001)      . . .
(PID.TID 0000.0001)                 8.869393350723613E+10,      /* I = 46 */
(PID.TID 0000.0001)                 9.003884657168852E+10,      /* I = 47 */
(PID.TID 0000.0001)                 9.071447638299399E+10,      /* I = 48 */
(PID.TID 0000.0001)                 9.071447638299399E+10,      /* I = 49 */
(PID.TID 0000.0001)                 9.003884657168852E+10,      /* I = 50 */
(PID.TID 0000.0001)                 8.869393350723613E+10,      /* I = 51 */
(PID.TID 0000.0001)      . . .
(PID.TID 0000.0001)                 3.341968103208270E+10,      /* I = 94 */
(PID.TID 0000.0001)                 2.390126200743558E+10,      /* I = 95 */
(PID.TID 0000.0001)                 1.216690346714270E+10,      /* I = 96 */
(PID.TID 0000.0001)                 1.216690346714270E+10,      /* I = 97 */
(PID.TID 0000.0001)                 2.390126200743558E+10,      /* I = 98 */
(PID.TID 0000.0001)                 3.341968103208270E+10,      /* I = 99 */
(PID.TID 0000.0001)      . . .
(PID.TID 0000.0001)                 8.869393350723613E+10,      /* I =142 */
(PID.TID 0000.0001)                 9.003884657168852E+10,      /* I =143 */
(PID.TID 0000.0001)                 9.071447638299399E+10,      /* I =144 */
(PID.TID 0000.0001)                 9.071447638299399E+10,      /* I =145 */
(PID.TID 0000.0001)                 9.003884657168852E+10,      /* I =146 */
(PID.TID 0000.0001)                 8.869393350723613E+10,      /* I =147 */
(PID.TID 0000.0001)      . . .
(PID.TID 0000.0001)                 3.341968103208270E+10,      /* I =190 */
(PID.TID 0000.0001)                 2.390126200743558E+10,      /* I =191 */
(PID.TID 0000.0001)                 1.216690346714270E+10       /* I =192 */
(PID.TID 0000.0001)     ;
(PID.TID 0000.0001) rAs =  /* rAs(1,:,1,:) ( units: m^2 ) */
(PID.TID 0000.0001)                 1.216690346714270E+10,      /* J =  1 */
(PID.TID 0000.0001)                 1.974052138506315E+10,      /* J =  2 */
(PID.TID 0000.0001)                 2.943712825252015E+10,      /* J =  3 */
(PID.TID 0000.0001)                 3.801790263324359E+10,      /* J =  4 */
(PID.TID 0000.0001)                 4.571243814189866E+10,      /* J =  5 */
(PID.TID 0000.0001)                 5.269930713599979E+10,      /* J =  6 */
(PID.TID 0000.0001)                 5.907428494299063E+10,      /* J =  7 */
(PID.TID 0000.0001)                 6.488320895111514E+10,      /* J =  8 */
(PID.TID 0000.0001)                 7.014205907741882E+10,      /* J =  9 */
(PID.TID 0000.0001)                 7.484854821847499E+10,      /* J = 10 */
(PID.TID 0000.0001)                 7.898934631431560E+10,      /* J = 11 */
(PID.TID 0000.0001)                 8.254500894894537E+10,      /* J = 12 */
(PID.TID 0000.0001)                 8.549360686473492E+10,      /* J = 13 */
(PID.TID 0000.0001)                 8.781353403175085E+10,      /* J = 14 */
(PID.TID 0000.0001)                 8.948571540392021E+10,      /* J = 15 */
(PID.TID 0000.0001)                 9.049530583086168E+10,      /* J = 16 */
(PID.TID 0000.0001)                 9.083293515008307E+10,      /* J = 17 */
(PID.TID 0000.0001)                 9.049530583087070E+10,      /* J = 18 */
(PID.TID 0000.0001)                 8.948571540391121E+10,      /* J = 19 */
(PID.TID 0000.0001)                 8.781353403174185E+10,      /* J = 20 */
(PID.TID 0000.0001)                 8.549360686467184E+10,      /* J = 21 */
(PID.TID 0000.0001)                 8.254500894890933E+10,      /* J = 22 */
(PID.TID 0000.0001)                 7.898934631434262E+10,      /* J = 23 */
(PID.TID 0000.0001)                 7.484854821844795E+10,      /* J = 24 */
(PID.TID 0000.0001)                 7.014205907742783E+10,      /* J = 25 */
(PID.TID 0000.0001)                 6.488320895111514E+10,      /* J = 26 */
(PID.TID 0000.0001)                 5.907428494299063E+10,      /* J = 27 */
(PID.TID 0000.0001)                 5.269930713599078E+10,      /* J = 28 */
(PID.TID 0000.0001)                 4.571243814190767E+10,      /* J = 29 */
(PID.TID 0000.0001)                 3.801790263325260E+10,      /* J = 30 */
(PID.TID 0000.0001)                 2.943712825251114E+10,      /* J = 31 */
(PID.TID 0000.0001)                 1.974052138509018E+10       /* J = 32 */
(PID.TID 0000.0001)     ;
(PID.TID 0000.0001) globalArea = /* Integrated horizontal Area (m^2) */
(PID.TID 0000.0001)                 5.099043637817220E+14
(PID.TID 0000.0001)     ;
(PID.TID 0000.0001) hasWetCSCorners = /* Domain contains CS corners (True/False) */
(PID.TID 0000.0001)                   T
(PID.TID 0000.0001)     ;
(PID.TID 0000.0001) // =======================================================
(PID.TID 0000.0001) // End of Model config. summary
(PID.TID 0000.0001) // =======================================================
(PID.TID 0000.0001) 
(PID.TID 0000.0001) == Packages configuration : Check & print summary ==
(PID.TID 0000.0001) 
(PID.TID 0000.0001) THSICE_CHECK: #define THSICE
(PID.TID 0000.0001) GAD_CHECK: #define ALLOW_GENERIC_ADVDIFF
(PID.TID 0000.0001) // =======================================================
(PID.TID 0000.0001) // Check Model config. (CONFIG_CHECK):
(PID.TID 0000.0001) // CONFIG_CHECK : Normal End
(PID.TID 0000.0001) // =======================================================
(PID.TID 0000.0001) 
(PID.TID 0000.0001) Start initial hydrostatic pressure computation
(PID.TID 0000.0001) Pressure is predetermined for buoyancyRelation ATMOSPHERIC
(PID.TID 0000.0001) 
(PID.TID 0000.0001)  write diagnostics summary to file ioUnit:      6
Iter.Nb:         0 ; Time(s):  0.0000000000000E+00
------------------------------------------------------------------------
2D/3D diagnostics: Number of lists:     5
------------------------------------------------------------------------
listId=    1 ; file name: surfDiag
 nFlds, nActive,       freq     &     phase        , nLev               
    3  |    3  |      4500.000000         0.000000 |   1
 levels:   1
 diag# | name   |   ipt  |  iMate | kLev|   count |   mate.C|           
    23 |ETAN    |      1 |      0 |   1 |       0 |
    24 |ETANSQ  |      2 |      0 |   1 |       0 |
    25 |DETADT2 |      3 |      0 |   1 |       0 |
------------------------------------------------------------------------
listId=    2 ; file name: dynDiag
 nFlds, nActive,       freq     &     phase        , nLev               
   20  |   20  |      4500.000000         0.000000 |   5
 levels:   1   2   3   4   5
 diag# | name   |   ipt  |  iMate | kLev|   count |   mate.C|           
    29 |UVEL    |      4 |      9 |   5 |       0 |       0 |
    30 |VVEL    |      9 |      4 |   5 |       0 |       0 |
    31 |WVEL    |     14 |      0 |   5 |       0 |
    26 |THETA   |     19 |      0 |   5 |       0 |
    27 |SALT    |     24 |      0 |   5 |       0 |
    34 |UVELSQ  |     29 |     34 |   5 |       0 |       0 |
    35 |VVELSQ  |     34 |     29 |   5 |       0 |       0 |
    36 |WVELSQ  |     39 |      0 |   5 |       0 |
    32 |THETASQ |     44 |      0 |   5 |       0 |
    40 |UV_VEL_Z|     49 |     49 |   5 |       0 |       0 |
    69 |PHIHYD  |     54 |      0 |   5 |       0 |
    70 |PHIHYDSQ|     59 |      0 |   5 |       0 |
    43 |UVELMASS|     64 |     69 |   5 |       0 |       0 |
    44 |VVELMASS|     69 |     64 |   5 |       0 |       0 |
    48 |UTHMASS |     74 |     79 |   5 |       0 |       0 |
    49 |VTHMASS |     79 |     74 |   5 |       0 |       0 |
    56 |WVELTH  |     84 |      0 |   5 |       0 |
    51 |USLTMASS|     89 |     94 |   5 |       0 |       0 |
    52 |VSLTMASS|     94 |     89 |   5 |       0 |       0 |
    59 |WVELSLT |     99 |      0 |   5 |       0 |
------------------------------------------------------------------------
listId=    3 ; file name: aimDiag
 nFlds, nActive,       freq     &     phase        , nLev               
   20  |   20  |      4500.000000         0.000000 |   1
 levels:   1
 diag# | name   |   ipt  |  iMate | kLev|   count |   mate.C|           
   256 |UFLUX   |    104 |    105 |   1 |       0 |       0 |
   257 |VFLUX   |    105 |    104 |   1 |       0 |       0 |
   230 |TSR     |    106 |      0 |   1 |       0 |
   231 |OLR     |    107 |      0 |   1 |       0 |
   232 |RADSWG  |    108 |      0 |   1 |       0 |
   233 |RADLWG  |    109 |      0 |   1 |       0 |
   234 |HFLUX   |    110 |      0 |   1 |       0 |
   235 |EVAP    |    111 |      0 |   1 |       0 |
   236 |PRECON  |    112 |      0 |   1 |       0 |
   237 |PRECLS  |    113 |      0 |   1 |       0 |
   238 |CLDFRC  |    114 |      0 |   1 |       0 |
   239 |CLDPRS  |    115 |    114 |   1 |       0 |       0 |
   240 |CLDMAS  |    116 |      0 |   1 |       0 |
   241 |DRAG    |    117 |      0 |   1 |       0 |
   242 |WINDS   |    118 |      0 |   1 |       0 |
   243 |TS      |    119 |      0 |   1 |       0 |
   244 |QS      |    120 |      0 |   1 |       0 |
   245 |ENPREC  |    121 |      0 |   1 |       0 |
   246 |ALBVISDF|    122 |      0 |   1 |       0 |
   260 |DTSIMPL |    123 |      0 |   1 |       0 |
------------------------------------------------------------------------
listId=    4 ; file name: aimDDT
 nFlds, nActive,       freq     &     phase        , nLev               
    9  |    9  |      4500.000000         0.000000 |   5
 levels:   1   2   3   4   5
 diag# | name   |   ipt  |  iMate | kLev|   count |   mate.C|           
    28 |RELHUM  |    124 |      0 |   5 |       0 |
   220 |DIABT   |    129 |      0 |   5 |       0 |
   221 |DIABQ   |    134 |      0 |   5 |       0 |
   222 |RADSW   |    139 |      0 |   5 |       0 |
   223 |RADLW   |    144 |      0 |   5 |       0 |
   224 |DTCONV  |    149 |      0 |   5 |       0 |
   226 |DTLS    |    154 |      0 |   5 |       0 |
   227 |DQCONV  |    159 |      0 |   5 |       0 |
   229 |DQLS    |    164 |      0 |   5 |       0 |
------------------------------------------------------------------------
listId=    5 ; file name: thSIceDiag
 nFlds, nActive,       freq     &     phase        , nLev               
   14  |   14  |      4500.000000         0.000000 |   1
 levels:   1
 diag# | name   |   ipt  |  iMate | kLev|   count |   mate.C|           
   176 |SI_Fract|    169 |      0 |   1 |       0 |
   177 |SI_Thick|    170 |    169 |   1 |       0 |       0 |
   178 |SI_SnowH|    171 |    169 |   1 |       0 |       0 |
   179 |SI_Tsrf |    172 |    169 |   1 |       0 |       0 |
   180 |SI_Tice1|    173 |    169 |   1 |       0 |       0 |
   181 |SI_Tice2|    174 |    169 |   1 |       0 |       0 |
   182 |SI_Qice1|    175 |    170 |   1 |       0 |       0 |
   183 |SI_Qice2|    176 |    170 |   1 |       0 |       0 |
   184 |SIsnwAge|    177 |      0 |   1 |       0 |
   186 |SIsnwPrc|    178 |    169 |   1 |       0 |       0 |
   185 |SIalbedo|    179 |    169 |   1 |       0 |       0 |
   189 |SIflx2oc|    180 |      0 |   1 |       0 |
   190 |SIfrw2oc|    181 |      0 |   1 |       0 |
   191 |SIsaltFx|    182 |      0 |   1 |       0 |
------------------------------------------------------------------------
Global & Regional Statistics diagnostics: Number of lists:     3
------------------------------------------------------------------------
listId=   1 ; file name: dynStDiag
 nFlds, nActive,       freq     &     phase        |                    
    5  |    5  |     -3600.000000         0.000000 |
 Regions:   0
 diag# | name   |   ipt  |  iMate |    Volume   |   mate-Vol. |         
    23 |ETAN    |      1 |      0 | 0.00000E+00 |
    29 |UVEL    |      2 |      0 | 0.00000E+00 |
    30 |VVEL    |      7 |      0 | 0.00000E+00 |
    31 |WVEL    |     12 |      0 | 0.00000E+00 |
    26 |THETA   |     17 |      0 | 0.00000E+00 |
------------------------------------------------------------------------
listId=   2 ; file name: landStDiag
 nFlds, nActive,       freq     &     phase        |                    
    4  |    4  |     -3600.000000         0.000000 |
 Regions:   1  2  3
 diag# | name   |   ipt  |  iMate |    Volume   |   mate-Vol. |         
   213 |LdSnowH |     22 |      0 | 0.00000E+00 |
   209 |GrdSurfT|     23 |      0 | 0.00000E+00 |
   210 |GrdTemp |     24 |      0 | 0.00000E+00 |
   212 |GrdWater|     26 |      0 | 0.00000E+00 |
------------------------------------------------------------------------
listId=   3 ; file name: thSIceStDiag
 nFlds, nActive,       freq     &     phase        |                    
   12  |   12  |     -3600.000000         0.000000 |
 Regions:   0  1  3
 diag# | name   |   ipt  |  iMate |    Volume   |   mate-Vol. |         
   176 |SI_Fract|     28 |      0 | 0.00000E+00 |
   177 |SI_Thick|     29 |     28 | 0.00000E+00 | 0.00000E+00 |
   178 |SI_SnowH|     30 |     28 | 0.00000E+00 | 0.00000E+00 |
   179 |SI_Tsrf |     31 |     28 | 0.00000E+00 | 0.00000E+00 |
   180 |SI_Tice1|     32 |     28 | 0.00000E+00 | 0.00000E+00 |
   181 |SI_Tice2|     33 |     28 | 0.00000E+00 | 0.00000E+00 |
   186 |SIsnwPrc|     34 |     28 | 0.00000E+00 | 0.00000E+00 |
   185 |SIalbedo|     35 |     28 | 0.00000E+00 | 0.00000E+00 |
   184 |SIsnwAge|     36 |      0 | 0.00000E+00 |
   189 |SIflx2oc|     37 |      0 | 0.00000E+00 |
   190 |SIfrw2oc|     38 |      0 | 0.00000E+00 |
   191 |SIsaltFx|     39 |      0 | 0.00000E+00 |
------------------------------------------------------------------------
(PID.TID 0000.0001)  MDS_READ_FIELD: opening global file: land_grT_ini.cpl.bin
(PID.TID 0000.0001)  MDS_READ_FIELD: opening global file: land_grW_ini.mn.bin
(PID.TID 0000.0001)  MDS_READ_FIELD: opening global file: land_snw_ini.cpl.bin
(PID.TID 0000.0001) // =======================================================
(PID.TID 0000.0001) // Model current state
(PID.TID 0000.0001) // =======================================================
(PID.TID 0000.0001) 
(PID.TID 0000.0001) // =======================================================
(PID.TID 0000.0001) // Begin MONITOR dynamic field statistics
(PID.TID 0000.0001) // =======================================================
(PID.TID 0000.0001) %MON time_tsnumber                =                     0
(PID.TID 0000.0001) %MON time_secondsf                =   0.0000000000000E+00
(PID.TID 0000.0001) %MON dynstat_eta_max              =   0.0000000000000E+00
(PID.TID 0000.0001) %MON dynstat_eta_min              =   0.0000000000000E+00
(PID.TID 0000.0001) %MON dynstat_eta_mean             =   0.0000000000000E+00
(PID.TID 0000.0001) %MON dynstat_eta_sd               =   0.0000000000000E+00
(PID.TID 0000.0001) %MON dynstat_eta_del2             =   0.0000000000000E+00
(PID.TID 0000.0001) %MON dynstat_uvel_max             =   0.0000000000000E+00
(PID.TID 0000.0001) %MON dynstat_uvel_min             =   0.0000000000000E+00
(PID.TID 0000.0001) %MON dynstat_uvel_mean            =   0.0000000000000E+00
(PID.TID 0000.0001) %MON dynstat_uvel_sd              =   0.0000000000000E+00
(PID.TID 0000.0001) %MON dynstat_uvel_del2            =   0.0000000000000E+00
(PID.TID 0000.0001) %MON dynstat_vvel_max             =   0.0000000000000E+00
(PID.TID 0000.0001) %MON dynstat_vvel_min             =   0.0000000000000E+00
(PID.TID 0000.0001) %MON dynstat_vvel_mean            =   0.0000000000000E+00
(PID.TID 0000.0001) %MON dynstat_vvel_sd              =   0.0000000000000E+00
(PID.TID 0000.0001) %MON dynstat_vvel_del2            =   0.0000000000000E+00
(PID.TID 0000.0001) %MON dynstat_wvel_max             =   0.0000000000000E+00
(PID.TID 0000.0001) %MON dynstat_wvel_min             =   0.0000000000000E+00
(PID.TID 0000.0001) %MON dynstat_wvel_mean            =   0.0000000000000E+00
(PID.TID 0000.0001) %MON dynstat_wvel_sd              =   0.0000000000000E+00
(PID.TID 0000.0001) %MON dynstat_wvel_del2            =   0.0000000000000E+00
(PID.TID 0000.0001) %MON dynstat_theta_max            =   4.3740000000000E+02
(PID.TID 0000.0001) %MON dynstat_theta_min            =   2.8960000000000E+02
(PID.TID 0000.0001) %MON dynstat_theta_mean           =   3.3171566851928E+02
(PID.TID 0000.0001) %MON dynstat_theta_sd             =   4.7418367738381E+01
(PID.TID 0000.0001) %MON dynstat_theta_del2           =   0.0000000000000E+00
(PID.TID 0000.0001) %MON dynstat_salt_max             =   0.0000000000000E+00
(PID.TID 0000.0001) %MON dynstat_salt_min             =   0.0000000000000E+00
(PID.TID 0000.0001) %MON dynstat_salt_mean            =   0.0000000000000E+00
(PID.TID 0000.0001) %MON dynstat_salt_sd              =   0.0000000000000E+00
(PID.TID 0000.0001) %MON dynstat_salt_del2            =   0.0000000000000E+00
(PID.TID 0000.0001) %MON advcfl_uvel_max              =   0.0000000000000E+00
(PID.TID 0000.0001) %MON advcfl_vvel_max              =   0.0000000000000E+00
(PID.TID 0000.0001) %MON advcfl_wvel_max              =   0.0000000000000E+00
(PID.TID 0000.0001) %MON advcfl_W_hf_max              =   0.0000000000000E+00
(PID.TID 0000.0001) %MON am_eta_mean                  =   0.0000000000000E+00
(PID.TID 0000.0001) %MON am_uZo_mean                  =   0.0000000000000E+00
(PID.TID 0000.0001) %MON am_tot_mean                  =   0.0000000000000E+00
(PID.TID 0000.0001) %MON pe_b_mean                    =   0.0000000000000E+00
(PID.TID 0000.0001) %MON ke_max                       =   0.0000000000000E+00
(PID.TID 0000.0001) %MON ke_mean                      =   0.0000000000000E+00
(PID.TID 0000.0001) %MON ke_vol                       =   4.9523908919847E+19
(PID.TID 0000.0001) %MON vort_r_min                   =   0.0000000000000E+00
(PID.TID 0000.0001) %MON vort_r_max                   =   0.0000000000000E+00
(PID.TID 0000.0001) %MON vort_a_mean                  =   6.7242814765318E-08
(PID.TID 0000.0001) %MON vort_a_sd                    =   8.3936822068631E-05
(PID.TID 0000.0001) %MON vort_p_mean                  =   6.8939448519602E-08
(PID.TID 0000.0001) %MON vort_p_sd                    =   9.1626513531368E-05
(PID.TID 0000.0001) %MON surfExpan_theta_mean         =   0.0000000000000E+00
(PID.TID 0000.0001) %MON surfExpan_salt_mean          =   0.0000000000000E+00
(PID.TID 0000.0001) %MON surfExpan_Heat_mean          =   0.0000000000000E+00
(PID.TID 0000.0001) %MON En_Budget_T2PE_mean          =   0.0000000000000E+00
(PID.TID 0000.0001) // =======================================================
(PID.TID 0000.0001) // End MONITOR dynamic field statistics
(PID.TID 0000.0001) // =======================================================
(PID.TID 0000.0001) // =======================================================
(PID.TID 0000.0001) // Begin MONITOR Land statistics
(PID.TID 0000.0001) // =======================================================
(PID.TID 0000.0001) %MON land_time_sec                =   0.0000000000000E+00
(PID.TID 0000.0001) %MON land_SnwH_ave_G              =   1.5327595968918E-01
(PID.TID 0000.0001) %MON land_SnwH_ave_S              =   5.5906277570341E-01
(PID.TID 0000.0001) %MON land_SnwH_ave_T              =   2.7405468051285E-07
(PID.TID 0000.0001) %MON land_SnwH_ave_N              =   1.2399418417812E-01
(PID.TID 0000.0001) %MON land_SnwH_max_S              =   1.0000000000000E+00
(PID.TID 0000.0001) %MON land_SnwH_max_T              =   7.7654719504950E-05
(PID.TID 0000.0001) %MON land_SnwH_max_N              =   1.0000000000000E+00
(PID.TID 0000.0001) %MON land_Tsrf_ave_G              =  -2.5815959216687E+00
(PID.TID 0000.0001) %MON land_Tsrf_ave_S              =  -3.3132697963695E+00
(PID.TID 0000.0001) %MON land_Tsrf_ave_T              =   2.0149199094728E+01
(PID.TID 0000.0001) %MON land_Tsrf_ave_N              =  -1.7523201785581E+01
(PID.TID 0000.0001) %MON land_Tsrf_min_S              =  -3.8985871813098E+01
(PID.TID 0000.0001) %MON land_Tsrf_min_T              =  -8.0316451094858E+00
(PID.TID 0000.0001) %MON land_Tsrf_min_N              =  -5.5018877502675E+01
(PID.TID 0000.0001) %MON land_Tsrf_max_S              =   3.3608904510445E+01
(PID.TID 0000.0001) %MON land_Tsrf_max_T              =   3.7568273139015E+01
(PID.TID 0000.0001) %MON land_Tsrf_max_N              =   1.5686208531239E+01
(PID.TID 0000.0001) %MON land_Tgr1_ave_G              =  -2.5815959216687E+00
(PID.TID 0000.0001) %MON land_Tgr1_ave_S              =  -3.3132697963695E+00
(PID.TID 0000.0001) %MON land_Tgr1_ave_T              =   2.0149199094728E+01
(PID.TID 0000.0001) %MON land_Tgr1_ave_N              =  -1.7523201785581E+01
(PID.TID 0000.0001) %MON land_Tgr1_min_S              =  -3.8985871813098E+01
(PID.TID 0000.0001) %MON land_Tgr1_min_T              =  -8.0316451094858E+00
(PID.TID 0000.0001) %MON land_Tgr1_min_N              =  -5.5018877502675E+01
(PID.TID 0000.0001) %MON land_Tgr1_max_S              =   3.3608904510445E+01
(PID.TID 0000.0001) %MON land_Tgr1_max_T              =   3.7568273139015E+01
(PID.TID 0000.0001) %MON land_Tgr1_max_N              =   1.5686208531239E+01
(PID.TID 0000.0001) %MON land_Tgr2_ave_G              =   4.2075844789702E+00
(PID.TID 0000.0001) %MON land_Tgr2_ave_S              =  -1.8731900381715E+01
(PID.TID 0000.0001) %MON land_Tgr2_ave_T              =   2.2013117275370E+01
(PID.TID 0000.0001) %MON land_Tgr2_ave_N              =  -2.4099755438272E-01
(PID.TID 0000.0001) %MON land_Tgr2_min_S              =  -6.4762296561906E+01
(PID.TID 0000.0001) %MON land_Tgr2_min_T              =  -9.7051070040243E+00
(PID.TID 0000.0001) %MON land_Tgr2_min_N              =  -4.0193619391069E+01
(PID.TID 0000.0001) %MON land_Tgr2_max_S              =   2.3360008819708E+01
(PID.TID 0000.0001) %MON land_Tgr2_max_T              =   3.1360925912704E+01
(PID.TID 0000.0001) %MON land_Tgr2_max_N              =   2.9833038898793E+01
(PID.TID 0000.0001) %MON land_TotEnerg_G              =  -6.2318014275423E+21
(PID.TID 0000.0001) %MON land_TotEnerg_S              =  -4.9893442833974E+21
(PID.TID 0000.0001) %MON land_TotEnerg_T              =   7.3640891470528E+21
(PID.TID 0000.0001) %MON land_TotEnerg_N              =  -8.6065462911976E+21
(PID.TID 0000.0001) %MON land_grdW_ave_G              =   4.8705004606900E-01
(PID.TID 0000.0001) %MON land_grdW_ave_S              =   3.0877764965169E-01
(PID.TID 0000.0001) %MON land_grdW_ave_T              =   5.6494425086260E-01
(PID.TID 0000.0001) %MON land_grdW_ave_N              =   4.9286506610416E-01
(PID.TID 0000.0001) %MON land_grdW_min_S              =   2.5944074829007E-02
(PID.TID 0000.0001) %MON land_grdW_min_T              =   0.0000000000000E+00
(PID.TID 0000.0001) %MON land_grdW_min_N              =   0.0000000000000E+00
(PID.TID 0000.0001) // =======================================================
(PID.TID 0000.0001) // End MONITOR Land statistics
(PID.TID 0000.0001) // =======================================================
(PID.TID 0000.0001) // =======================================================
(PID.TID 0000.0001) // Begin MONITOR Therm.SeaIce statistics
(PID.TID 0000.0001) // =======================================================
(PID.TID 0000.0001) %MON thSI_time_sec                =   0.0000000000000E+00
(PID.TID 0000.0001) %MON thSI_Ice_Area_G              =   0.0000000000000E+00
(PID.TID 0000.0001) %MON thSI_Ice_Area_S              =   0.0000000000000E+00
(PID.TID 0000.0001) %MON thSI_Ice_Area_N              =   0.0000000000000E+00
(PID.TID 0000.0001) %MON thSI_IceH_ave_G              =   0.0000000000000E+00
(PID.TID 0000.0001) %MON thSI_IceH_ave_S              =   0.0000000000000E+00
(PID.TID 0000.0001) %MON thSI_IceH_ave_N              =   0.0000000000000E+00
(PID.TID 0000.0001) %MON thSI_IceH_max_S              =   0.0000000000000E+00
(PID.TID 0000.0001) %MON thSI_IceH_max_N              =   0.0000000000000E+00
(PID.TID 0000.0001) %MON thSI_SnwH_ave_G              =   0.0000000000000E+00
(PID.TID 0000.0001) %MON thSI_SnwH_ave_S              =   0.0000000000000E+00
(PID.TID 0000.0001) %MON thSI_SnwH_ave_N              =   0.0000000000000E+00
(PID.TID 0000.0001) %MON thSI_SnwH_max_S              =   0.0000000000000E+00
(PID.TID 0000.0001) %MON thSI_SnwH_max_N              =   0.0000000000000E+00
(PID.TID 0000.0001) %MON thSI_Tsrf_ave_G              =   0.0000000000000E+00
(PID.TID 0000.0001) %MON thSI_Tsrf_ave_S              =   0.0000000000000E+00
(PID.TID 0000.0001) %MON thSI_Tsrf_ave_N              =   0.0000000000000E+00
(PID.TID 0000.0001) %MON thSI_Tsrf_min_S              =   0.0000000000000E+00
(PID.TID 0000.0001) %MON thSI_Tsrf_min_N              =   0.0000000000000E+00
(PID.TID 0000.0001) %MON thSI_Tsrf_max_S              =   0.0000000000000E+00
(PID.TID 0000.0001) %MON thSI_Tsrf_max_N              =   0.0000000000000E+00
(PID.TID 0000.0001) %MON thSI_Tic1_ave_G              =   0.0000000000000E+00
(PID.TID 0000.0001) %MON thSI_Tic1_ave_S              =   0.0000000000000E+00
(PID.TID 0000.0001) %MON thSI_Tic1_ave_N              =   0.0000000000000E+00
(PID.TID 0000.0001) %MON thSI_Tic1_min_S              =   0.0000000000000E+00
(PID.TID 0000.0001) %MON thSI_Tic1_min_N              =   0.0000000000000E+00
(PID.TID 0000.0001) %MON thSI_Tic1_max_S              =   0.0000000000000E+00
(PID.TID 0000.0001) %MON thSI_Tic1_max_N              =   0.0000000000000E+00
(PID.TID 0000.0001) %MON thSI_Tic2_ave_G              =   0.0000000000000E+00
(PID.TID 0000.0001) %MON thSI_Tic2_ave_S              =   0.0000000000000E+00
(PID.TID 0000.0001) %MON thSI_Tic2_ave_N              =   0.0000000000000E+00
(PID.TID 0000.0001) %MON thSI_Tic2_min_S              =   0.0000000000000E+00
(PID.TID 0000.0001) %MON thSI_Tic2_min_N              =   0.0000000000000E+00
(PID.TID 0000.0001) %MON thSI_Tic2_max_S              =   0.0000000000000E+00
(PID.TID 0000.0001) %MON thSI_Tic2_max_N              =   0.0000000000000E+00
(PID.TID 0000.0001) %MON thSI_TotEnerg_G              =  -0.0000000000000E+00
(PID.TID 0000.0001) // =======================================================
(PID.TID 0000.0001) // End MONITOR Therm.SeaIce statistics
(PID.TID 0000.0001) // =======================================================
(PID.TID 0000.0001)  MDS_READ_FIELD: opening global file: albedo_cs32.bin
(PID.TID 0000.0001)  MDS_READ_FIELD: opening global file: vegetFrc.cpl_FM.bin
(PID.TID 0000.0001)  MDS_READ_FIELD: opening global file: seaSurfT.cpl_FM.bin
(PID.TID 0000.0001)  MDS_READ_FIELD: opening global file: seaSurfT.cpl_FM.bin
(PID.TID 0000.0001)  MDS_READ_FIELD: opening global file: lndSurfT.cpl_FM.bin
(PID.TID 0000.0001)  MDS_READ_FIELD: opening global file: lndSurfT.cpl_FM.bin
(PID.TID 0000.0001)  MDS_READ_FIELD: opening global file: seaIce.cpl3FM.bin
(PID.TID 0000.0001)  MDS_READ_FIELD: opening global file: seaIce.cpl3FM.bin
(PID.TID 0000.0001)  MDS_READ_FIELD: opening global file: snowDepth.cpl_FM.bin
(PID.TID 0000.0001)  MDS_READ_FIELD: opening global file: snowDepth.cpl_FM.bin
(PID.TID 0000.0001)  MDS_READ_FIELD: opening global file: soilMoist.cpl_FM.bin
(PID.TID 0000.0001)  MDS_READ_FIELD: opening global file: soilMoist.cpl_FM.bin
(PID.TID 0000.0001)  MDS_READ_FIELD: opening global file: soilMoist.cpl_FM.bin
(PID.TID 0000.0001)  MDS_READ_FIELD: opening global file: soilMoist.cpl_FM.bin
(PID.TID 0000.0001) SOLVE_FOR_PRESSURE: putPmEinXvector =    F
 cg2d: Sum(rhs),rhsMax =  -5.79802872380242E-12  4.56406615217961E+03
(PID.TID 0000.0001)      cg2d_init_res =   2.69435642942126E+04
(PID.TID 0000.0001)      cg2d_iters(min,last) =      -1      16
(PID.TID 0000.0001)      cg2d_last_res =   1.02964652237669E-10
(PID.TID 0000.0001) // =======================================================
(PID.TID 0000.0001) // Begin MONITOR dynamic field statistics
(PID.TID 0000.0001) // =======================================================
(PID.TID 0000.0001) %MON time_tsnumber                =                     1
(PID.TID 0000.0001) %MON time_secondsf                =   4.5000000000000E+02
(PID.TID 0000.0001) %MON dynstat_eta_max              =   5.0126275000125E+02
(PID.TID 0000.0001) %MON dynstat_eta_min              =  -4.3379872426445E+02
(PID.TID 0000.0001) %MON dynstat_eta_mean             =   1.5963777873226E-16
(PID.TID 0000.0001) %MON dynstat_eta_sd               =   4.9434200776663E+01
(PID.TID 0000.0001) %MON dynstat_eta_del2             =   1.6777176510994E+00
(PID.TID 0000.0001) %MON dynstat_uvel_max             =   3.5050330571859E+00
(PID.TID 0000.0001) %MON dynstat_uvel_min             =  -2.8290208018706E+00
(PID.TID 0000.0001) %MON dynstat_uvel_mean            =  -8.6292684982432E-04
(PID.TID 0000.0001) %MON dynstat_uvel_sd              =   2.4016304516424E-01
(PID.TID 0000.0001) %MON dynstat_uvel_del2            =   2.0543318376510E-03
(PID.TID 0000.0001) %MON dynstat_vvel_max             =   3.6157626389765E+00
(PID.TID 0000.0001) %MON dynstat_vvel_min             =  -3.9171448519691E+00
(PID.TID 0000.0001) %MON dynstat_vvel_mean            =   1.0771995433407E-03
(PID.TID 0000.0001) %MON dynstat_vvel_sd              =   2.3236707519739E-01
(PID.TID 0000.0001) %MON dynstat_vvel_del2            =   2.2482648375913E-03
(PID.TID 0000.0001) %MON dynstat_wvel_max             =   4.7863246796719E-02
(PID.TID 0000.0001) %MON dynstat_wvel_min             =  -3.2571113815568E-01
(PID.TID 0000.0001) %MON dynstat_wvel_mean            =  -1.2649136710238E-03
(PID.TID 0000.0001) %MON dynstat_wvel_sd              =   1.0365742260025E-02
(PID.TID 0000.0001) %MON dynstat_wvel_del2            =   1.1926677284460E-04
(PID.TID 0000.0001) %MON dynstat_theta_max            =   4.3742467645505E+02
(PID.TID 0000.0001) %MON dynstat_theta_min            =   2.8934441046035E+02
(PID.TID 0000.0001) %MON dynstat_theta_mean           =   3.3171681419471E+02
(PID.TID 0000.0001) %MON dynstat_theta_sd             =   4.7417090198829E+01
(PID.TID 0000.0001) %MON dynstat_theta_del2           =   1.3191556819063E-04
(PID.TID 0000.0001) %MON dynstat_salt_max             =   4.8304031265066E-01
(PID.TID 0000.0001) %MON dynstat_salt_min             =  -3.6219168156610E-03
(PID.TID 0000.0001) %MON dynstat_salt_mean            =   4.0928948031409E-03
(PID.TID 0000.0001) %MON dynstat_salt_sd              =   1.7922377232563E-02
(PID.TID 0000.0001) %MON dynstat_salt_del2            =   9.7286654528379E-05
(PID.TID 0000.0001) %MON advcfl_uvel_max              =   5.0314489801751E-03
(PID.TID 0000.0001) %MON advcfl_vvel_max              =   5.5715472353764E-03
(PID.TID 0000.0001) %MON advcfl_wvel_max              =   5.3298186243656E-03
(PID.TID 0000.0001) %MON advcfl_W_hf_max              =   6.6802535151774E-03
(PID.TID 0000.0001) %MON am_eta_mean                  =   0.0000000000000E+00
(PID.TID 0000.0001) %MON am_uZo_mean                  =  -4.5570080907306E+06
(PID.TID 0000.0001) %MON am_tot_mean                  =  -4.5570080907306E+06
(PID.TID 0000.0001) %MON pe_b_mean                    =  -1.0794436543107E-01
(PID.TID 0000.0001) %MON ke_max                       =   6.1693781199338E+00
(PID.TID 0000.0001) %MON ke_mean                      =   5.5508143602989E-02
(PID.TID 0000.0001) %MON ke_vol                       =   4.9523908919847E+19
(PID.TID 0000.0001) %MON vort_r_min                   =  -9.4915373902207E-06
(PID.TID 0000.0001) %MON vort_r_max                   =   7.5335333512184E-06
(PID.TID 0000.0001) %MON vort_a_mean                  =   6.7242814765326E-08
(PID.TID 0000.0001) %MON vort_a_sd                    =   8.3936940887348E-05
(PID.TID 0000.0001) %MON vort_p_mean                  =   6.8939448519610E-08
(PID.TID 0000.0001) %MON vort_p_sd                    =   9.1622236718465E-05
(PID.TID 0000.0001) %MON surfExpan_theta_mean         =   1.2017650515625E-01
(PID.TID 0000.0001) %MON surfExpan_salt_mean          =   1.8291405698348E-06
(PID.TID 0000.0001) %MON surfExpan_Heat_mean          =  -9.8620343333913E+00
(PID.TID 0000.0001) %MON En_Budget_T2PE_mean          =   1.8815991479553E+01
(PID.TID 0000.0001) // =======================================================
(PID.TID 0000.0001) // End MONITOR dynamic field statistics
(PID.TID 0000.0001) // =======================================================
(PID.TID 0000.0001) // =======================================================
(PID.TID 0000.0001) // Begin MONITOR Land statistics
(PID.TID 0000.0001) // =======================================================
(PID.TID 0000.0001) %MON land_time_sec                =   4.5000000000000E+02
(PID.TID 0000.0001) %MON land_SnwH_ave_G              =   1.5324899418271E-01
(PID.TID 0000.0001) %MON land_SnwH_ave_S              =   5.5906218925101E-01
(PID.TID 0000.0001) %MON land_SnwH_ave_T              =   0.0000000000000E+00
(PID.TID 0000.0001) %MON land_SnwH_ave_N              =   1.2394083770072E-01
(PID.TID 0000.0001) %MON land_SnwH_max_S              =   9.9999994790628E-01
(PID.TID 0000.0001) %MON land_SnwH_max_T              =   0.0000000000000E+00
(PID.TID 0000.0001) %MON land_SnwH_max_N              =   9.9999994052276E-01
(PID.TID 0000.0001) %MON LAND : Area= 1.460176263E+14 ; Lat sep= -24.00  24.00
(PID.TID 0000.0001) %MON LAND : LatA= 2.377676559E+13 4.894489218E+13 7.329596851E+13
(PID.TID 0000.0001) %MON land_Tsrf_ave_G              =  -4.5018097153331E+00
(PID.TID 0000.0001) %MON land_Tsrf_ave_S              =  -4.8502891206834E+00
(PID.TID 0000.0001) %MON land_Tsrf_ave_T              =   1.8967115730433E+01
(PID.TID 0000.0001) %MON land_Tsrf_ave_N              =  -2.0060623322950E+01
(PID.TID 0000.0001) %MON land_Tsrf_min_S              =  -3.4780031503666E+01
(PID.TID 0000.0001) %MON land_Tsrf_min_T              =  -7.7790761348767E+00
(PID.TID 0000.0001) %MON land_Tsrf_min_N              =  -5.2204837440254E+01
(PID.TID 0000.0001) %MON land_Tsrf_max_S              =   3.1949330087513E+01
(PID.TID 0000.0001) %MON land_Tsrf_max_T              =   3.5750083102673E+01
(PID.TID 0000.0001) %MON land_Tsrf_max_N              =   1.5372300088674E+01
(PID.TID 0000.0001) %MON land_Tgr1_ave_G              =  -3.1124927886792E+00
(PID.TID 0000.0001) %MON land_Tgr1_ave_S              =  -3.7813957895996E+00
(PID.TID 0000.0001) %MON land_Tgr1_ave_T              =   1.8967115730433E+01
(PID.TID 0000.0001) %MON land_Tgr1_ave_N              =  -1.7639617949757E+01
(PID.TID 0000.0001) %MON land_Tgr1_min_S              =  -3.8998391445355E+01
(PID.TID 0000.0001) %MON land_Tgr1_min_T              =  -7.7790761348767E+00
(PID.TID 0000.0001) %MON land_Tgr1_min_N              =  -5.5006030742765E+01
(PID.TID 0000.0001) %MON land_Tgr1_max_S              =   3.1949330087513E+01
(PID.TID 0000.0001) %MON land_Tgr1_max_T              =   3.5750083102673E+01
(PID.TID 0000.0001) %MON land_Tgr1_max_N              =   1.5372300088674E+01
(PID.TID 0000.0001) %MON land_Tgr2_ave_G              =   4.2074719607241E+00
(PID.TID 0000.0001) %MON land_Tgr2_ave_S              =  -1.8731652795813E+01
(PID.TID 0000.0001) %MON land_Tgr2_ave_T              =   2.2013064794749E+01
(PID.TID 0000.0001) %MON land_Tgr2_ave_N              =  -2.4126697958059E-01
(PID.TID 0000.0001) %MON land_Tgr2_min_S              =  -6.4761861869106E+01
(PID.TID 0000.0001) %MON land_Tgr2_min_T              =  -9.7050826670751E+00
(PID.TID 0000.0001) %MON land_Tgr2_min_N              =  -4.0193860864683E+01
(PID.TID 0000.0001) %MON land_Tgr2_max_S              =   2.3360154776443E+01
(PID.TID 0000.0001) %MON land_Tgr2_max_T              =   3.1360681955355E+01
(PID.TID 0000.0001) %MON land_Tgr2_max_N              =   2.9832408494537E+01
(PID.TID 0000.0001) %MON land_TotEnerg_G              =  -6.2449420214312E+21
(PID.TID 0000.0001) %MON land_TotEnerg_S              =  -4.9909809342333E+21
(PID.TID 0000.0001) %MON land_TotEnerg_T              =   7.3535863970854E+21
(PID.TID 0000.0001) %MON land_TotEnerg_N              =  -8.6075474842833E+21
(PID.TID 0000.0001) %MON land_grdW_ave_G              =   4.8703721222978E-01
(PID.TID 0000.0001) %MON land_grdW_ave_S              =   3.0876199363048E-01
(PID.TID 0000.0001) %MON land_grdW_ave_T              =   5.6488813559401E-01
(PID.TID 0000.0001) %MON land_grdW_ave_N              =   4.9288204982923E-01
(PID.TID 0000.0001) %MON land_grdW_min_S              =   2.5934444940682E-02
(PID.TID 0000.0001) %MON land_grdW_min_T              =   0.0000000000000E+00
(PID.TID 0000.0001) %MON land_grdW_min_N              =   0.0000000000000E+00
(PID.TID 0000.0001) // =======================================================
(PID.TID 0000.0001) // End MONITOR Land statistics
(PID.TID 0000.0001) // =======================================================
(PID.TID 0000.0001) // =======================================================
(PID.TID 0000.0001) // Begin MONITOR Therm.SeaIce statistics
(PID.TID 0000.0001) // =======================================================
(PID.TID 0000.0001) %MON thSI_time_sec                =   4.5000000000000E+02
(PID.TID 0000.0001) %MON thSI_Ice_Area_G              =   1.0798601922970E+12
(PID.TID 0000.0001) %MON thSI_Ice_Area_S              =   6.7352377284038E+10
(PID.TID 0000.0001) %MON thSI_Ice_Area_N              =   1.0125078150129E+12
(PID.TID 0000.0001) %MON thSI_IceH_ave_G              =   1.0000000000000E-01
(PID.TID 0000.0001) %MON thSI_IceH_ave_S              =   1.0000000000000E-01
(PID.TID 0000.0001) %MON thSI_IceH_ave_N              =   1.0000000000000E-01
(PID.TID 0000.0001) %MON thSI_IceH_max_S              =   1.0000000000000E-01
(PID.TID 0000.0001) %MON thSI_IceH_max_N              =   1.0000000000000E-01
(PID.TID 0000.0001) %MON thSI_SnwH_ave_G              =   0.0000000000000E+00
(PID.TID 0000.0001) %MON thSI_SnwH_ave_S              =   0.0000000000000E+00
(PID.TID 0000.0001) %MON thSI_SnwH_ave_N              =   0.0000000000000E+00
(PID.TID 0000.0001) %MON thSI_SnwH_max_S              =   0.0000000000000E+00
(PID.TID 0000.0001) %MON thSI_SnwH_max_N              =   0.0000000000000E+00
(PID.TID 0000.0001) %MON thSI_Tsrf_ave_G              =  -1.8900000000000E+00
(PID.TID 0000.0001) %MON thSI_Tsrf_ave_S              =  -1.8900000000000E+00
(PID.TID 0000.0001) %MON thSI_Tsrf_ave_N              =  -1.8900000000000E+00
(PID.TID 0000.0001) %MON thSI_Tsrf_min_S              =  -1.8900000000000E+00
(PID.TID 0000.0001) %MON thSI_Tsrf_min_N              =  -1.8900000000000E+00
(PID.TID 0000.0001) %MON thSI_Tsrf_max_S              =  -1.8900000000000E+00
(PID.TID 0000.0001) %MON thSI_Tsrf_max_N              =  -1.8900000000000E+00
(PID.TID 0000.0001) %MON thSI_Tic1_ave_G              =  -1.8900000000000E+00
(PID.TID 0000.0001) %MON thSI_Tic1_ave_S              =  -1.8900000000000E+00
(PID.TID 0000.0001) %MON thSI_Tic1_ave_N              =  -1.8900000000000E+00
(PID.TID 0000.0001) %MON thSI_Tic1_min_S              =  -1.8900000000000E+00
(PID.TID 0000.0001) %MON thSI_Tic1_min_N              =  -1.8900000000000E+00
(PID.TID 0000.0001) %MON thSI_Tic1_max_S              =  -1.8900000000000E+00
(PID.TID 0000.0001) %MON thSI_Tic1_max_N              =  -1.8900000000000E+00
(PID.TID 0000.0001) %MON thSI_Tic2_ave_G              =  -1.8900000000000E+00
(PID.TID 0000.0001) %MON thSI_Tic2_ave_S              =  -1.8900000000000E+00
(PID.TID 0000.0001) %MON thSI_Tic2_ave_N              =  -1.8900000000000E+00
(PID.TID 0000.0001) %MON thSI_Tic2_min_S              =  -1.8900000000000E+00
(PID.TID 0000.0001) %MON thSI_Tic2_min_N              =  -1.8900000000000E+00
(PID.TID 0000.0001) %MON thSI_Tic2_max_S              =  -1.8900000000000E+00
(PID.TID 0000.0001) %MON thSI_Tic2_max_N              =  -1.8900000000000E+00
(PID.TID 0000.0001) %MON thSI_TotEnerg_G              =  -3.2388667751114E+19
(PID.TID 0000.0001) // =======================================================
(PID.TID 0000.0001) // End MONITOR Therm.SeaIce statistics
(PID.TID 0000.0001) // =======================================================
 Compute Stats, Diag. #     23  ETAN      vol(   0 ): 5.099E+14  Parms: SM      M1      
 Compute Stats, Diag. #     29  UVEL      vol(   0 ): 4.923E+19  Parms: UUR     MR      
 Compute Stats, Diag. #     30  VVEL      vol(   0 ): 4.923E+19  Parms: VVR     MR      
 Compute Stats, Diag. #     31  WVEL      vol(   0 ): 4.680E+19  Parms: WM      LR      
 Compute Stats, Diag. #     26  THETA     vol(   0 ): 4.952E+19  Parms: SMR     MR      
 Compute Stats, Diag. #    213  LdSnowH   vol(   1 ): 2.378E+13  Parms: SM P    Lg      
 Compute Stats, Diag. #    213  LdSnowH   vol(   2 ): 4.894E+13  Parms: SM P    Lg      
 Compute Stats, Diag. #    213  LdSnowH   vol(   3 ): 7.330E+13  Parms: SM P    Lg      
 Compute Stats, Diag. #    209  GrdSurfT  vol(   1 ): 2.378E+13  Parms: SM      Lg      
 Compute Stats, Diag. #    209  GrdSurfT  vol(   2 ): 4.894E+13  Parms: SM      Lg      
 Compute Stats, Diag. #    209  GrdSurfT  vol(   3 ): 7.330E+13  Parms: SM      Lg      
 Compute Stats, Diag. #    210  GrdTemp   vol(   1 ): 9.748E+13  Parms: SM      MG      
 Compute Stats, Diag. #    210  GrdTemp   vol(   2 ): 2.007E+14  Parms: SM      MG      
 Compute Stats, Diag. #    210  GrdTemp   vol(   3 ): 3.005E+14  Parms: SM      MG      
 Compute Stats, Diag. #    212  GrdWater  vol(   1 ): 9.748E+13  Parms: SM P    MG      
 Compute Stats, Diag. #    212  GrdWater  vol(   2 ): 2.007E+14  Parms: SM P    MG      
 Compute Stats, Diag. #    212  GrdWater  vol(   3 ): 3.005E+14  Parms: SM P    MG      
 Compute Stats, Diag. #    176  SI_Fract  vol(   0 ): 5.099E+14  Parms: SM P    M1      
 Compute Stats, Diag. #    176  SI_Fract  vol(   1 ): 1.526E+14  Parms: SM P    M1      
 Compute Stats, Diag. #    176  SI_Fract  vol(   3 ): 1.526E+14  Parms: SM P    M1      
 Compute Stats, Diag. #    177  SI_Thick  vol(   0 ): 0.000E+00  Parms: SM PC   M1      
    use Counter Mate  #    176  SI_Fract  vol(   0 ): 5.099E+14 integral 0.000E+00
 Compute Stats, Diag. #    177  SI_Thick  vol(   1 ): 0.000E+00  Parms: SM PC   M1      
    use Counter Mate  #    176  SI_Fract  vol(   1 ): 1.526E+14 integral 0.000E+00
 Compute Stats, Diag. #    177  SI_Thick  vol(   3 ): 0.000E+00  Parms: SM PC   M1      
    use Counter Mate  #    176  SI_Fract  vol(   3 ): 1.526E+14 integral 0.000E+00
 Compute Stats, Diag. #    178  SI_SnowH  vol(   0 ): 0.000E+00  Parms: SM PC   M1      
    use Counter Mate  #    176  SI_Fract  vol(   0 ): 5.099E+14 integral 0.000E+00
 Compute Stats, Diag. #    178  SI_SnowH  vol(   1 ): 0.000E+00  Parms: SM PC   M1      
    use Counter Mate  #    176  SI_Fract  vol(   1 ): 1.526E+14 integral 0.000E+00
 Compute Stats, Diag. #    178  SI_SnowH  vol(   3 ): 0.000E+00  Parms: SM PC   M1      
    use Counter Mate  #    176  SI_Fract  vol(   3 ): 1.526E+14 integral 0.000E+00
 Compute Stats, Diag. #    179  SI_Tsrf   vol(   0 ): 0.000E+00  Parms: SM  C   M1      
    use Counter Mate  #    176  SI_Fract  vol(   0 ): 5.099E+14 integral 0.000E+00
 Compute Stats, Diag. #    179  SI_Tsrf   vol(   1 ): 0.000E+00  Parms: SM  C   M1      
    use Counter Mate  #    176  SI_Fract  vol(   1 ): 1.526E+14 integral 0.000E+00
 Compute Stats, Diag. #    179  SI_Tsrf   vol(   3 ): 0.000E+00  Parms: SM  C   M1      
    use Counter Mate  #    176  SI_Fract  vol(   3 ): 1.526E+14 integral 0.000E+00
 Compute Stats, Diag. #    180  SI_Tice1  vol(   0 ): 0.000E+00  Parms: SM  C   M1      
    use Counter Mate  #    176  SI_Fract  vol(   0 ): 5.099E+14 integral 0.000E+00
 Compute Stats, Diag. #    180  SI_Tice1  vol(   1 ): 0.000E+00  Parms: SM  C   M1      
    use Counter Mate  #    176  SI_Fract  vol(   1 ): 1.526E+14 integral 0.000E+00
 Compute Stats, Diag. #    180  SI_Tice1  vol(   3 ): 0.000E+00  Parms: SM  C   M1      
    use Counter Mate  #    176  SI_Fract  vol(   3 ): 1.526E+14 integral 0.000E+00
 Compute Stats, Diag. #    181  SI_Tice2  vol(   0 ): 0.000E+00  Parms: SM  C   M1      
    use Counter Mate  #    176  SI_Fract  vol(   0 ): 5.099E+14 integral 0.000E+00
 Compute Stats, Diag. #    181  SI_Tice2  vol(   1 ): 0.000E+00  Parms: SM  C   M1      
    use Counter Mate  #    176  SI_Fract  vol(   1 ): 1.526E+14 integral 0.000E+00
 Compute Stats, Diag. #    181  SI_Tice2  vol(   3 ): 0.000E+00  Parms: SM  C   M1      
    use Counter Mate  #    176  SI_Fract  vol(   3 ): 1.526E+14 integral 0.000E+00
 Compute Stats, Diag. #    186  SIsnwPrc  vol(   0 ): 0.000E+00  Parms: SM  C   M1      
    use Counter Mate  #    176  SI_Fract  vol(   0 ): 5.099E+14 integral 0.000E+00
 Compute Stats, Diag. #    186  SIsnwPrc  vol(   1 ): 0.000E+00  Parms: SM  C   M1      
    use Counter Mate  #    176  SI_Fract  vol(   1 ): 1.526E+14 integral 0.000E+00
 Compute Stats, Diag. #    186  SIsnwPrc  vol(   3 ): 0.000E+00  Parms: SM  C   M1      
    use Counter Mate  #    176  SI_Fract  vol(   3 ): 1.526E+14 integral 0.000E+00
 Compute Stats, Diag. #    185  SIalbedo  vol(   0 ): 0.000E+00  Parms: SM PC   M1      
    use Counter Mate  #    176  SI_Fract  vol(   0 ): 5.099E+14 integral 0.000E+00
 Compute Stats, Diag. #    185  SIalbedo  vol(   1 ): 0.000E+00  Parms: SM PC   M1      
    use Counter Mate  #    176  SI_Fract  vol(   1 ): 1.526E+14 integral 0.000E+00
 Compute Stats, Diag. #    185  SIalbedo  vol(   3 ): 0.000E+00  Parms: SM PC   M1      
    use Counter Mate  #    176  SI_Fract  vol(   3 ): 1.526E+14 integral 0.000E+00
 Compute Stats, Diag. #    184  SIsnwAge  vol(   0 ): 5.099E+14  Parms: SM P    M1      
 Compute Stats, Diag. #    184  SIsnwAge  vol(   1 ): 1.526E+14  Parms: SM P    M1      
 Compute Stats, Diag. #    184  SIsnwAge  vol(   3 ): 1.526E+14  Parms: SM P    M1      
 Compute Stats, Diag. #    189  SIflx2oc  vol(   0 ): 5.099E+14  Parms: SM      M1      
 Compute Stats, Diag. #    189  SIflx2oc  vol(   1 ): 1.526E+14  Parms: SM      M1      
 Compute Stats, Diag. #    189  SIflx2oc  vol(   3 ): 1.526E+14  Parms: SM      M1      
 Compute Stats, Diag. #    190  SIfrw2oc  vol(   0 ): 5.099E+14  Parms: SM      M1      
 Compute Stats, Diag. #    190  SIfrw2oc  vol(   1 ): 1.526E+14  Parms: SM      M1      
 Compute Stats, Diag. #    190  SIfrw2oc  vol(   3 ): 1.526E+14  Parms: SM      M1      
 Compute Stats, Diag. #    191  SIsaltFx  vol(   0 ): 5.099E+14  Parms: SM      M1      
 Compute Stats, Diag. #    191  SIsaltFx  vol(   1 ): 1.526E+14  Parms: SM      M1      
 Compute Stats, Diag. #    191  SIsaltFx  vol(   3 ): 1.526E+14  Parms: SM      M1      
 cg2d: Sum(rhs),rhsMax =   3.62092578143347E-11  9.41224987919868E+03
(PID.TID 0000.0001)      cg2d_init_res =   3.37267004987828E+04
(PID.TID 0000.0001)      cg2d_iters(min,last) =      -1      17
(PID.TID 0000.0001)      cg2d_last_res =   1.29900300590111E-11
(PID.TID 0000.0001) // =======================================================
(PID.TID 0000.0001) // Begin MONITOR dynamic field statistics
(PID.TID 0000.0001) // =======================================================
(PID.TID 0000.0001) %MON time_tsnumber                =                     2
(PID.TID 0000.0001) %MON time_secondsf                =   9.0000000000000E+02
(PID.TID 0000.0001) %MON dynstat_eta_max              =   1.0784426428860E+03
(PID.TID 0000.0001) %MON dynstat_eta_min              =  -1.0659073164713E+03
(PID.TID 0000.0001) %MON dynstat_eta_mean             =   7.0915258955264E-16
(PID.TID 0000.0001) %MON dynstat_eta_sd               =   1.1744435761025E+02
(PID.TID 0000.0001) %MON dynstat_eta_del2             =   3.5373317516650E+00
(PID.TID 0000.0001) %MON dynstat_uvel_max             =   5.5654071518344E+00
(PID.TID 0000.0001) %MON dynstat_uvel_min             =  -4.9458828352408E+00
(PID.TID 0000.0001) %MON dynstat_uvel_mean            =  -1.7311726478427E-03
(PID.TID 0000.0001) %MON dynstat_uvel_sd              =   4.1328123106009E-01
(PID.TID 0000.0001) %MON dynstat_uvel_del2            =   2.5826318212598E-03
(PID.TID 0000.0001) %MON dynstat_vvel_max             =   5.9318020823266E+00
(PID.TID 0000.0001) %MON dynstat_vvel_min             =  -6.7152670291073E+00
(PID.TID 0000.0001) %MON dynstat_vvel_mean            =   2.2460749890632E-03
(PID.TID 0000.0001) %MON dynstat_vvel_sd              =   3.9047395341911E-01
(PID.TID 0000.0001) %MON dynstat_vvel_del2            =   2.8461206210568E-03
(PID.TID 0000.0001) %MON dynstat_wvel_max             =   6.1160986602078E-02
(PID.TID 0000.0001) %MON dynstat_wvel_min             =  -5.0801822328572E-01
(PID.TID 0000.0001) %MON dynstat_wvel_mean            =  -2.0602948541795E-03
(PID.TID 0000.0001) %MON dynstat_wvel_sd              =   1.6041861666014E-02
(PID.TID 0000.0001) %MON dynstat_wvel_del2            =   1.6922077622511E-04
(PID.TID 0000.0001) %MON dynstat_theta_max            =   4.3747894585636E+02
(PID.TID 0000.0001) %MON dynstat_theta_min            =   2.8908988102579E+02
(PID.TID 0000.0001) %MON dynstat_theta_mean           =   3.3171711068986E+02
(PID.TID 0000.0001) %MON dynstat_theta_sd             =   4.7416541191079E+01
(PID.TID 0000.0001) %MON dynstat_theta_del2           =   2.5251177082364E-04
(PID.TID 0000.0001) %MON dynstat_salt_max             =   9.1942979167744E-01
(PID.TID 0000.0001) %MON dynstat_salt_min             =  -2.9699317709014E-03
(PID.TID 0000.0001) %MON dynstat_salt_mean            =   8.1271246448241E-03
(PID.TID 0000.0001) %MON dynstat_salt_sd              =   3.5369288220951E-02
(PID.TID 0000.0001) %MON dynstat_salt_del2            =   1.8430479099205E-04
(PID.TID 0000.0001) %MON advcfl_uvel_max              =   7.9891007250125E-03
(PID.TID 0000.0001) %MON advcfl_vvel_max              =   9.5514536390015E-03
(PID.TID 0000.0001) %MON advcfl_wvel_max              =   8.3130254719481E-03
(PID.TID 0000.0001) %MON advcfl_W_hf_max              =   1.0442580773016E-02
(PID.TID 0000.0001) %MON am_eta_mean                  =  -4.4782454493304E+07
(PID.TID 0000.0001) %MON am_uZo_mean                  =   3.6037731723573E+07
(PID.TID 0000.0001) %MON am_tot_mean                  =  -8.7447227697303E+06
(PID.TID 0000.0001) %MON pe_b_mean                    =  -2.4454954345260E-01
(PID.TID 0000.0001) %MON ke_max                       =   1.6400955283046E+01
(PID.TID 0000.0001) %MON ke_mean                      =   1.6068692587326E-01
(PID.TID 0000.0001) %MON ke_vol                       =   4.9523908919847E+19
(PID.TID 0000.0001) %MON vort_r_min                   =  -1.6528720484325E-05
(PID.TID 0000.0001) %MON vort_r_max                   =   1.1202475368696E-05
(PID.TID 0000.0001) %MON vort_a_mean                  =   6.7242814765383E-08
(PID.TID 0000.0001) %MON vort_a_sd                    =   8.3937549815830E-05
(PID.TID 0000.0001) %MON vort_p_mean                  =   6.8939448367711E-08
(PID.TID 0000.0001) %MON vort_p_sd                    =   9.1637615945393E-05
(PID.TID 0000.0001) %MON surfExpan_theta_mean         =   1.9677974600830E-01
(PID.TID 0000.0001) %MON surfExpan_salt_mean          =   4.5293242562293E-06
(PID.TID 0000.0001) %MON surfExpan_Heat_mean          =  -1.6122843298380E+01
(PID.TID 0000.0001) %MON En_Budget_T2PE_mean          =   3.0760233346040E+01
(PID.TID 0000.0001) // =======================================================
(PID.TID 0000.0001) // End MONITOR dynamic field statistics
(PID.TID 0000.0001) // =======================================================
(PID.TID 0000.0001) // =======================================================
(PID.TID 0000.0001) // Begin MONITOR Land statistics
(PID.TID 0000.0001) // =======================================================
(PID.TID 0000.0001) %MON land_time_sec                =   9.0000000000000E+02
(PID.TID 0000.0001) %MON land_SnwH_ave_G              =   1.5324757292650E-01
(PID.TID 0000.0001) %MON land_SnwH_ave_S              =   5.5906150812488E-01
(PID.TID 0000.0001) %MON land_SnwH_ave_T              =   0.0000000000000E+00
(PID.TID 0000.0001) %MON land_SnwH_ave_N              =   1.2393822727773E-01
(PID.TID 0000.0001) %MON land_SnwH_max_S              =   9.9999903098904E-01
(PID.TID 0000.0001) %MON land_SnwH_max_T              =   0.0000000000000E+00
(PID.TID 0000.0001) %MON land_SnwH_max_N              =   9.9999987351522E-01
(PID.TID 0000.0001) %MON land_Tsrf_ave_G              =  -5.0652210496358E+00
(PID.TID 0000.0001) %MON land_Tsrf_ave_S              =  -5.5025803562130E+00
(PID.TID 0000.0001) %MON land_Tsrf_ave_T              =   1.7949616771794E+01
(PID.TID 0000.0001) %MON land_Tsrf_ave_N              =  -2.0291976197805E+01
(PID.TID 0000.0001) %MON land_Tsrf_min_S              =  -3.4769221382365E+01
(PID.TID 0000.0001) %MON land_Tsrf_min_T              =  -7.5299692364860E+00
(PID.TID 0000.0001) %MON land_Tsrf_min_N              =  -5.1747790149840E+01
(PID.TID 0000.0001) %MON land_Tsrf_max_S              =   3.0527147557441E+01
(PID.TID 0000.0001) %MON land_Tsrf_max_T              =   3.4123840702442E+01
(PID.TID 0000.0001) %MON land_Tsrf_max_N              =   1.4715827061576E+01
(PID.TID 0000.0001) %MON land_Tgr1_ave_G              =  -3.5648513823039E+00
(PID.TID 0000.0001) %MON land_Tgr1_ave_S              =  -4.1877853205304E+00
(PID.TID 0000.0001) %MON land_Tgr1_ave_T              =   1.7949616771794E+01
(PID.TID 0000.0001) %MON land_Tgr1_ave_N              =  -1.7729504511963E+01
(PID.TID 0000.0001) %MON land_Tgr1_min_S              =  -3.9010895124444E+01
(PID.TID 0000.0001) %MON land_Tgr1_min_T              =  -7.5299692364860E+00
(PID.TID 0000.0001) %MON land_Tgr1_min_N              =  -5.4992760177704E+01
(PID.TID 0000.0001) %MON land_Tgr1_max_S              =   3.0527147557441E+01
(PID.TID 0000.0001) %MON land_Tgr1_max_T              =   3.4123840702442E+01
(PID.TID 0000.0001) %MON land_Tgr1_max_N              =   1.4715827061576E+01
(PID.TID 0000.0001) %MON land_Tgr2_ave_G              =   4.2073557609033E+00
(PID.TID 0000.0001) %MON land_Tgr2_ave_S              =  -1.8731411666328E+01
(PID.TID 0000.0001) %MON land_Tgr2_ave_T              =   2.2012996600245E+01
(PID.TID 0000.0001) %MON land_Tgr2_ave_N              =  -2.4153115138979E-01
(PID.TID 0000.0001) %MON land_Tgr2_min_S              =  -6.4761427409520E+01
(PID.TID 0000.0001) %MON land_Tgr2_min_T              =  -9.7050551833815E+00
(PID.TID 0000.0001) %MON land_Tgr2_min_N              =  -4.0194102085193E+01
(PID.TID 0000.0001) %MON land_Tgr2_max_S              =   2.3360276077247E+01
(PID.TID 0000.0001) %MON land_Tgr2_max_T              =   3.1360419806746E+01
(PID.TID 0000.0001) %MON land_Tgr2_max_N              =   2.9832066099546E+01
(PID.TID 0000.0001) %MON land_TotEnerg_G              =  -6.2564655679754E+21
(PID.TID 0000.0001) %MON land_TotEnerg_S              =  -4.9923903962237E+21
(PID.TID 0000.0001) %MON land_TotEnerg_T              =   7.3445977935426E+21
(PID.TID 0000.0001) %MON land_TotEnerg_N              =  -8.6086729652943E+21
(PID.TID 0000.0001) %MON land_grdW_ave_G              =   4.8701737295051E-01
(PID.TID 0000.0001) %MON land_grdW_ave_S              =   3.0874743052268E-01
(PID.TID 0000.0001) %MON land_grdW_ave_T              =   5.6483651105396E-01
(PID.TID 0000.0001) %MON land_grdW_ave_N              =   4.9288172425443E-01
(PID.TID 0000.0001) %MON land_grdW_min_S              =   2.5938832099723E-02
(PID.TID 0000.0001) %MON land_grdW_min_T              =   0.0000000000000E+00
(PID.TID 0000.0001) %MON land_grdW_min_N              =   0.0000000000000E+00
(PID.TID 0000.0001) // =======================================================
(PID.TID 0000.0001) // End MONITOR Land statistics
(PID.TID 0000.0001) // =======================================================
(PID.TID 0000.0001) // =======================================================
(PID.TID 0000.0001) // Begin MONITOR Therm.SeaIce statistics
(PID.TID 0000.0001) // =======================================================
(PID.TID 0000.0001) %MON thSI_time_sec                =   9.0000000000000E+02
(PID.TID 0000.0001) %MON thSI_Ice_Area_G              =   1.1030638115362E+12
(PID.TID 0000.0001) %MON thSI_Ice_Area_S              =   6.7351904922884E+10
(PID.TID 0000.0001) %MON thSI_Ice_Area_N              =   1.0357119066133E+12
(PID.TID 0000.0001) %MON thSI_IceH_ave_G              =   1.0015868013801E-01
(PID.TID 0000.0001) %MON thSI_IceH_ave_S              =   9.9997347109744E-02
(PID.TID 0000.0001) %MON thSI_IceH_ave_N              =   1.0016917155624E-01
(PID.TID 0000.0001) %MON thSI_IceH_max_S              =   9.9997352402534E-02
(PID.TID 0000.0001) %MON thSI_IceH_max_N              =   1.0017816955696E-01
(PID.TID 0000.0001) %MON thSI_SnwH_ave_G              =   0.0000000000000E+00
(PID.TID 0000.0001) %MON thSI_SnwH_ave_S              =   0.0000000000000E+00
(PID.TID 0000.0001) %MON thSI_SnwH_ave_N              =   0.0000000000000E+00
(PID.TID 0000.0001) %MON thSI_SnwH_max_S              =   0.0000000000000E+00
(PID.TID 0000.0001) %MON thSI_SnwH_max_N              =   0.0000000000000E+00
(PID.TID 0000.0001) %MON thSI_Tsrf_ave_G              =  -4.3270193401731E+00
(PID.TID 0000.0001) %MON thSI_Tsrf_ave_S              =  -1.6724490101140E+00
(PID.TID 0000.0001) %MON thSI_Tsrf_ave_N              =  -4.4996449200662E+00
(PID.TID 0000.0001) %MON thSI_Tsrf_min_S              =  -1.6953445589763E+00
(PID.TID 0000.0001) %MON thSI_Tsrf_min_N              =  -4.5760862051238E+00
(PID.TID 0000.0001) %MON thSI_Tsrf_max_S              =  -1.6479449664104E+00
(PID.TID 0000.0001) %MON thSI_Tsrf_max_N              =  -4.1271632421600E+00
(PID.TID 0000.0001) %MON thSI_Tic1_ave_G              =  -2.1464979001146E+00
(PID.TID 0000.0001) %MON thSI_Tic1_ave_S              =  -1.8522959130043E+00
(PID.TID 0000.0001) %MON thSI_Tic1_ave_N              =  -2.1655969126044E+00
(PID.TID 0000.0001) %MON thSI_Tic1_min_S              =  -1.8545668622786E+00
(PID.TID 0000.0001) %MON thSI_Tic1_min_N              =  -2.1741694830183E+00
(PID.TID 0000.0001) %MON thSI_Tic1_max_S              =  -1.8498533354565E+00
(PID.TID 0000.0001) %MON thSI_Tic1_max_N              =  -2.1205560465176E+00
(PID.TID 0000.0001) %MON thSI_Tic2_ave_G              =  -1.9213781424149E+00
(PID.TID 0000.0001) %MON thSI_Tic2_ave_S              =  -1.8854429666349E+00
(PID.TID 0000.0001) %MON thSI_Tic2_ave_N              =  -1.9237109831200E+00
(PID.TID 0000.0001) %MON thSI_Tic2_min_S              =  -1.8857211514616E+00
(PID.TID 0000.0001) %MON thSI_Tic2_min_N              =  -1.9247580539948E+00
(PID.TID 0000.0001) %MON thSI_Tic2_max_S              =  -1.8851454318799E+00
(PID.TID 0000.0001) %MON thSI_Tic2_max_N              =  -1.9182096017628E+00
(PID.TID 0000.0001) %MON thSI_TotEnerg_G              =  -3.3223969834578E+19
(PID.TID 0000.0001) // =======================================================
(PID.TID 0000.0001) // End MONITOR Therm.SeaIce statistics
(PID.TID 0000.0001) // =======================================================
 cg2d: Sum(rhs),rhsMax =  -4.08135747420602E-11  1.24887207402487E+04
(PID.TID 0000.0001)      cg2d_init_res =   3.03875032261748E+04
(PID.TID 0000.0001)      cg2d_iters(min,last) =      -1      17
(PID.TID 0000.0001)      cg2d_last_res =   1.12480522241898E-11
(PID.TID 0000.0001) // =======================================================
(PID.TID 0000.0001) // Begin MONITOR dynamic field statistics
(PID.TID 0000.0001) // =======================================================
(PID.TID 0000.0001) %MON time_tsnumber                =                     3
(PID.TID 0000.0001) %MON time_secondsf                =   1.3500000000000E+03
(PID.TID 0000.0001) %MON dynstat_eta_max              =   1.7731296364943E+03
(PID.TID 0000.0001) %MON dynstat_eta_min              =  -1.7282887371973E+03
(PID.TID 0000.0001) %MON dynstat_eta_mean             =  -1.3022049763909E-15
(PID.TID 0000.0001) %MON dynstat_eta_sd               =   1.8404226501931E+02
(PID.TID 0000.0001) %MON dynstat_eta_del2             =   4.8006493903426E+00
(PID.TID 0000.0001) %MON dynstat_uvel_max             =   6.3352448016935E+00
(PID.TID 0000.0001) %MON dynstat_uvel_min             =  -6.3583948077982E+00
(PID.TID 0000.0001) %MON dynstat_uvel_mean            =  -2.5933575037842E-03
(PID.TID 0000.0001) %MON dynstat_uvel_sd              =   5.3330643269547E-01
(PID.TID 0000.0001) %MON dynstat_uvel_del2            =   2.2900534227687E-03
(PID.TID 0000.0001) %MON dynstat_vvel_max             =   7.1590440115586E+00
(PID.TID 0000.0001) %MON dynstat_vvel_min             =  -8.2968647629467E+00
(PID.TID 0000.0001) %MON dynstat_vvel_mean            =   3.4433111603918E-03
(PID.TID 0000.0001) %MON dynstat_vvel_sd              =   4.9484904208988E-01
(PID.TID 0000.0001) %MON dynstat_vvel_del2            =   2.4820097250115E-03
(PID.TID 0000.0001) %MON dynstat_wvel_max             =   5.7695325380159E-02
(PID.TID 0000.0001) %MON dynstat_wvel_min             =  -5.6778019485368E-01
(PID.TID 0000.0001) %MON dynstat_wvel_mean            =  -2.4247165891253E-03
(PID.TID 0000.0001) %MON dynstat_wvel_sd              =   1.8254498348575E-02
(PID.TID 0000.0001) %MON dynstat_wvel_del2            =   1.8548646187889E-04
(PID.TID 0000.0001) %MON dynstat_theta_max            =   4.3759035182546E+02
(PID.TID 0000.0001) %MON dynstat_theta_min            =   2.8883963912071E+02
(PID.TID 0000.0001) %MON dynstat_theta_mean           =   3.3171710896794E+02
(PID.TID 0000.0001) %MON dynstat_theta_sd             =   4.7416586672189E+01
(PID.TID 0000.0001) %MON dynstat_theta_del2           =   3.8875732333181E-04
(PID.TID 0000.0001) %MON dynstat_salt_max             =   1.2937563383754E+00
(PID.TID 0000.0001) %MON dynstat_salt_min             =  -2.2908537076279E-03
(PID.TID 0000.0001) %MON dynstat_salt_mean            =   1.2105780829467E-02
(PID.TID 0000.0001) %MON dynstat_salt_sd              =   5.2425716520712E-02
(PID.TID 0000.0001) %MON dynstat_salt_del2            =   2.6264647485571E-04
(PID.TID 0000.0001) %MON advcfl_uvel_max              =   9.0941969666422E-03
(PID.TID 0000.0001) %MON advcfl_vvel_max              =   1.1801037663708E-02
(PID.TID 0000.0001) %MON advcfl_wvel_max              =   9.2909486430602E-03
(PID.TID 0000.0001) %MON advcfl_W_hf_max              =   1.1799065236712E-02
(PID.TID 0000.0001) %MON am_eta_mean                  =  -1.3544306638936E+08
(PID.TID 0000.0001) %MON am_uZo_mean                  =   1.2318017123255E+08
(PID.TID 0000.0001) %MON am_tot_mean                  =  -1.2262895156813E+07
(PID.TID 0000.0001) %MON pe_b_mean                    =  -3.6772594696406E-01
(PID.TID 0000.0001) %MON ke_max                       =   2.3678627171778E+01
(PID.TID 0000.0001) %MON ke_mean                      =   2.6309504116183E-01
(PID.TID 0000.0001) %MON ke_vol                       =   4.9523908919847E+19
(PID.TID 0000.0001) %MON vort_r_min                   =  -2.1108490796303E-05
(PID.TID 0000.0001) %MON vort_r_max                   =   1.2735033700283E-05
(PID.TID 0000.0001) %MON vort_a_mean                  =   6.7242814765368E-08
(PID.TID 0000.0001) %MON vort_a_sd                    =   8.3938507497209E-05
(PID.TID 0000.0001) %MON vort_p_mean                  =   6.8939448504126E-08
(PID.TID 0000.0001) %MON vort_p_sd                    =   9.1660803837273E-05
(PID.TID 0000.0001) %MON surfExpan_theta_mean         =   2.3243872493874E-01
(PID.TID 0000.0001) %MON surfExpan_salt_mean          =   4.2775954117736E-06
(PID.TID 0000.0001) %MON surfExpan_Heat_mean          =  -1.9092028270304E+01
(PID.TID 0000.0001) %MON En_Budget_T2PE_mean          =   3.6351442915352E+01
(PID.TID 0000.0001) // =======================================================
(PID.TID 0000.0001) // End MONITOR dynamic field statistics
(PID.TID 0000.0001) // =======================================================
(PID.TID 0000.0001) // =======================================================
(PID.TID 0000.0001) // Begin MONITOR Land statistics
(PID.TID 0000.0001) // =======================================================
(PID.TID 0000.0001) %MON land_time_sec                =   1.3500000000000E+03
(PID.TID 0000.0001) %MON land_SnwH_ave_G              =   1.5324622502523E-01
(PID.TID 0000.0001) %MON land_SnwH_ave_S              =   5.5906076154901E-01
(PID.TID 0000.0001) %MON land_SnwH_ave_T              =   0.0000000000000E+00
(PID.TID 0000.0001) %MON land_SnwH_ave_N              =   1.2393578422133E-01
(PID.TID 0000.0001) %MON land_SnwH_max_S              =   9.9999852294588E-01
(PID.TID 0000.0001) %MON land_SnwH_max_T              =   0.0000000000000E+00
(PID.TID 0000.0001) %MON land_SnwH_max_N              =   9.9999979568979E-01
(PID.TID 0000.0001) %MON land_Tsrf_ave_G              =  -5.4067096220000E+00
(PID.TID 0000.0001) %MON land_Tsrf_ave_S              =  -5.6666387610536E+00
(PID.TID 0000.0001) %MON land_Tsrf_ave_T              =   1.7063132018187E+01
(PID.TID 0000.0001) %MON land_Tsrf_ave_N              =  -2.0327089613644E+01
(PID.TID 0000.0001) %MON land_Tsrf_min_S              =  -3.4646161839513E+01
(PID.TID 0000.0001) %MON land_Tsrf_min_T              =  -7.2844962510574E+00
(PID.TID 0000.0001) %MON land_Tsrf_min_N              =  -5.0746577728497E+01
(PID.TID 0000.0001) %MON land_Tsrf_max_S              =   2.9347414718103E+01
(PID.TID 0000.0001) %MON land_Tsrf_max_T              =   3.2664873456173E+01
(PID.TID 0000.0001) %MON land_Tsrf_max_N              =   1.4116411715814E+01
(PID.TID 0000.0001) %MON land_Tgr1_ave_G              =  -3.9621539708448E+00
(PID.TID 0000.0001) %MON land_Tgr1_ave_S              =  -4.5431786442679E+00
(PID.TID 0000.0001) %MON land_Tgr1_ave_T              =   1.7063132018187E+01
(PID.TID 0000.0001) %MON land_Tgr1_ave_N              =  -1.7813740747419E+01
(PID.TID 0000.0001) %MON land_Tgr1_min_S              =  -3.9023247758884E+01
(PID.TID 0000.0001) %MON land_Tgr1_min_T              =  -7.2844962510574E+00
(PID.TID 0000.0001) %MON land_Tgr1_min_N              =  -5.4978536651268E+01
(PID.TID 0000.0001) %MON land_Tgr1_max_S              =   2.9347414718103E+01
(PID.TID 0000.0001) %MON land_Tgr1_max_T              =   3.2664873456173E+01
(PID.TID 0000.0001) %MON land_Tgr1_max_N              =   1.4116411715814E+01
(PID.TID 0000.0001) %MON land_Tgr2_ave_G              =   4.2072329472937E+00
(PID.TID 0000.0001) %MON land_Tgr2_ave_S              =  -1.8731176188935E+01
(PID.TID 0000.0001) %MON land_Tgr2_ave_T              =   2.2012913773615E+01
(PID.TID 0000.0001) %MON land_Tgr2_ave_N              =  -2.4179689454641E-01
(PID.TID 0000.0001) %MON land_Tgr2_min_S              =  -6.4760993180772E+01
(PID.TID 0000.0001) %MON land_Tgr2_min_T              =  -9.7050245989021E+00
(PID.TID 0000.0001) %MON land_Tgr2_min_N              =  -4.0194343038290E+01
(PID.TID 0000.0001) %MON land_Tgr2_max_S              =   2.3360375712658E+01
(PID.TID 0000.0001) %MON land_Tgr2_max_T              =   3.1360140999692E+01
(PID.TID 0000.0001) %MON land_Tgr2_max_N              =   2.9831710398553E+01
(PID.TID 0000.0001) %MON land_TotEnerg_G              =  -6.2665672752018E+21
(PID.TID 0000.0001) %MON land_TotEnerg_S              =  -4.9936150329205E+21
(PID.TID 0000.0001) %MON land_TotEnerg_T              =   7.3367986865619E+21
(PID.TID 0000.0001) %MON land_TotEnerg_N              =  -8.6097509288432E+21
(PID.TID 0000.0001) %MON land_grdW_ave_G              =   4.8699898824024E-01
(PID.TID 0000.0001) %MON land_grdW_ave_S              =   3.0873376507585E-01
(PID.TID 0000.0001) %MON land_grdW_ave_T              =   5.6478878765033E-01
(PID.TID 0000.0001) %MON land_grdW_ave_N              =   4.9288140016045E-01
(PID.TID 0000.0001) %MON land_grdW_min_S              =   2.5955186921652E-02
(PID.TID 0000.0001) %MON land_grdW_min_T              =   0.0000000000000E+00
(PID.TID 0000.0001) %MON land_grdW_min_N              =   0.0000000000000E+00
(PID.TID 0000.0001) // =======================================================
(PID.TID 0000.0001) // End MONITOR Land statistics
(PID.TID 0000.0001) // =======================================================
(PID.TID 0000.0001) // =======================================================
(PID.TID 0000.0001) // Begin MONITOR Therm.SeaIce statistics
(PID.TID 0000.0001) // =======================================================
(PID.TID 0000.0001) %MON thSI_time_sec                =   1.3500000000000E+03
(PID.TID 0000.0001) %MON thSI_Ice_Area_G              =   1.1412333268338E+12
(PID.TID 0000.0001) %MON thSI_Ice_Area_S              =   6.7350780553847E+10
(PID.TID 0000.0001) %MON thSI_Ice_Area_N              =   1.0738825462799E+12
(PID.TID 0000.0001) %MON thSI_IceH_ave_G              =   1.0042795227599E-01
(PID.TID 0000.0001) %MON thSI_IceH_ave_S              =   9.9994675722241E-02
(PID.TID 0000.0001) %MON thSI_IceH_ave_N              =   1.0045512611747E-01
(PID.TID 0000.0001) %MON thSI_IceH_max_S              =   9.9994691329040E-02
(PID.TID 0000.0001) %MON thSI_IceH_max_N              =   1.0047328833781E-01
(PID.TID 0000.0001) %MON thSI_SnwH_ave_G              =   0.0000000000000E+00
(PID.TID 0000.0001) %MON thSI_SnwH_ave_S              =   0.0000000000000E+00
(PID.TID 0000.0001) %MON thSI_SnwH_ave_N              =   0.0000000000000E+00
(PID.TID 0000.0001) %MON thSI_SnwH_max_S              =   0.0000000000000E+00
(PID.TID 0000.0001) %MON thSI_SnwH_max_N              =   0.0000000000000E+00
(PID.TID 0000.0001) %MON thSI_Tsrf_ave_G              =  -4.5925249691766E+00
(PID.TID 0000.0001) %MON thSI_Tsrf_ave_S              =  -1.6301163905487E+00
(PID.TID 0000.0001) %MON thSI_Tsrf_ave_N              =  -4.7783185932383E+00
(PID.TID 0000.0001) %MON thSI_Tsrf_min_S              =  -1.6616559950763E+00
(PID.TID 0000.0001) %MON thSI_Tsrf_min_N              =  -4.8652571250021E+00
(PID.TID 0000.0001) %MON thSI_Tsrf_max_S              =  -1.6010130849747E+00
(PID.TID 0000.0001) %MON thSI_Tsrf_max_N              =  -4.3492240984287E+00
(PID.TID 0000.0001) %MON thSI_Tic1_ave_G              =  -2.4337809603837E+00
(PID.TID 0000.0001) %MON thSI_Tic1_ave_S              =  -1.8164866488339E+00
(PID.TID 0000.0001) %MON thSI_Tic1_ave_N              =  -2.4723184035648E+00
(PID.TID 0000.0001) %MON thSI_Tic1_min_S              =  -1.8214294063546E+00
(PID.TID 0000.0001) %MON thSI_Tic1_min_N              =  -2.4917203592099E+00
(PID.TID 0000.0001) %MON thSI_Tic1_max_S              =  -1.8116117998585E+00
(PID.TID 0000.0001) %MON thSI_Tic1_max_N              =  -2.3704569710099E+00
(PID.TID 0000.0001) %MON thSI_Tic2_ave_G              =  -1.9762161681329E+00
(PID.TID 0000.0001) %MON thSI_Tic2_ave_S              =  -1.8781817049026E+00
(PID.TID 0000.0001) %MON thSI_Tic2_ave_N              =  -1.9823364214478E+00
(PID.TID 0000.0001) %MON thSI_Tic2_min_S              =  -1.8789624975521E+00
(PID.TID 0000.0001) %MON thSI_Tic2_min_N              =  -1.9853539397844E+00
(PID.TID 0000.0001) %MON thSI_Tic2_max_S              =  -1.8773985602375E+00
(PID.TID 0000.0001) %MON thSI_Tic2_max_N              =  -1.9665273327933E+00
(PID.TID 0000.0001) %MON thSI_TotEnerg_G              =  -3.4553095567761E+19
(PID.TID 0000.0001) // =======================================================
(PID.TID 0000.0001) // End MONITOR Therm.SeaIce statistics
(PID.TID 0000.0001) // =======================================================
 cg2d: Sum(rhs),rhsMax =   1.00385477708187E-10  1.42976104183727E+04
(PID.TID 0000.0001)      cg2d_init_res =   2.56608649337709E+04
(PID.TID 0000.0001)      cg2d_iters(min,last) =      -1      16
(PID.TID 0000.0001)      cg2d_last_res =   9.17302954629916E-11
(PID.TID 0000.0001) // =======================================================
(PID.TID 0000.0001) // Begin MONITOR dynamic field statistics
(PID.TID 0000.0001) // =======================================================
(PID.TID 0000.0001) %MON time_tsnumber                =                     4
(PID.TID 0000.0001) %MON time_secondsf                =   1.8000000000000E+03
(PID.TID 0000.0001) %MON dynstat_eta_max              =   2.5477013089093E+03
(PID.TID 0000.0001) %MON dynstat_eta_min              =  -2.2486337162907E+03
(PID.TID 0000.0001) %MON dynstat_eta_mean             =   7.5308239598511E-17
(PID.TID 0000.0001) %MON dynstat_eta_sd               =   2.4109321733649E+02
(PID.TID 0000.0001) %MON dynstat_eta_del2             =   5.3311297801611E+00
(PID.TID 0000.0001) %MON dynstat_uvel_max             =   7.1062375917346E+00
(PID.TID 0000.0001) %MON dynstat_uvel_min             =  -7.2020760241358E+00
(PID.TID 0000.0001) %MON dynstat_uvel_mean            =  -3.4186373552104E-03
(PID.TID 0000.0001) %MON dynstat_uvel_sd              =   6.1789650772166E-01
(PID.TID 0000.0001) %MON dynstat_uvel_del2            =   1.9205571002479E-03
(PID.TID 0000.0001) %MON dynstat_vvel_max             =   7.7297507320499E+00
(PID.TID 0000.0001) %MON dynstat_vvel_min             =  -8.9166526886990E+00
(PID.TID 0000.0001) %MON dynstat_vvel_mean            =   4.7015350966426E-03
(PID.TID 0000.0001) %MON dynstat_vvel_sd              =   5.7125041977268E-01
(PID.TID 0000.0001) %MON dynstat_vvel_del2            =   1.9666515111592E-03
(PID.TID 0000.0001) %MON dynstat_wvel_max             =   7.8163717662021E-02
(PID.TID 0000.0001) %MON dynstat_wvel_min             =  -5.4989993382203E-01
(PID.TID 0000.0001) %MON dynstat_wvel_mean            =  -2.4889019645675E-03
(PID.TID 0000.0001) %MON dynstat_wvel_sd              =   1.9128941488592E-02
(PID.TID 0000.0001) %MON dynstat_wvel_del2            =   2.0629492470521E-04
(PID.TID 0000.0001) %MON dynstat_theta_max            =   4.3767662770250E+02
(PID.TID 0000.0001) %MON dynstat_theta_min            =   2.8859313042591E+02
(PID.TID 0000.0001) %MON dynstat_theta_mean           =   3.3171688501570E+02
(PID.TID 0000.0001) %MON dynstat_theta_sd             =   4.7417061514180E+01
(PID.TID 0000.0001) %MON dynstat_theta_del2           =   5.9517709790542E-04
(PID.TID 0000.0001) %MON dynstat_salt_max             =   1.6276555247097E+00
(PID.TID 0000.0001) %MON dynstat_salt_min             =  -1.6122584913208E-03
(PID.TID 0000.0001) %MON dynstat_salt_mean            =   1.6035463962426E-02
(PID.TID 0000.0001) %MON dynstat_salt_sd              =   6.9109957849801E-02
(PID.TID 0000.0001) %MON dynstat_salt_del2            =   3.2983882522656E-04
(PID.TID 0000.0001) %MON advcfl_uvel_max              =   1.0292487387081E-02
(PID.TID 0000.0001) %MON advcfl_vvel_max              =   1.2682592427379E-02
(PID.TID 0000.0001) %MON advcfl_wvel_max              =   8.9983625534515E-03
(PID.TID 0000.0001) %MON advcfl_W_hf_max              =   1.1593252649902E-02
(PID.TID 0000.0001) %MON am_eta_mean                  =  -2.7245672730517E+08
(PID.TID 0000.0001) %MON am_uZo_mean                  =   2.5755176594624E+08
(PID.TID 0000.0001) %MON am_tot_mean                  =  -1.4904961358929E+07
(PID.TID 0000.0001) %MON pe_b_mean                    =  -4.7076696780090E-01
(PID.TID 0000.0001) %MON ke_max                       =   2.9476307182422E+01
(PID.TID 0000.0001) %MON ke_mean                      =   3.5199162554109E-01
(PID.TID 0000.0001) %MON ke_vol                       =   4.9523908919847E+19
(PID.TID 0000.0001) %MON vort_r_min                   =  -2.4047974807658E-05
(PID.TID 0000.0001) %MON vort_r_max                   =   1.3418136181622E-05
(PID.TID 0000.0001) %MON vort_a_mean                  =   6.7242814765350E-08
(PID.TID 0000.0001) %MON vort_a_sd                    =   8.3939804162136E-05
(PID.TID 0000.0001) %MON vort_p_mean                  =   6.8939448752877E-08
(PID.TID 0000.0001) %MON vort_p_sd                    =   9.1689535538451E-05
(PID.TID 0000.0001) %MON surfExpan_theta_mean         =   2.3948572427208E-01
(PID.TID 0000.0001) %MON surfExpan_salt_mean          =  -6.2863523505447E-07
(PID.TID 0000.0001) %MON surfExpan_Heat_mean          =  -1.9728575792799E+01
(PID.TID 0000.0001) %MON En_Budget_T2PE_mean          =   3.7470211357482E+01
(PID.TID 0000.0001) // =======================================================
(PID.TID 0000.0001) // End MONITOR dynamic field statistics
(PID.TID 0000.0001) // =======================================================
(PID.TID 0000.0001) // =======================================================
(PID.TID 0000.0001) // Begin MONITOR Land statistics
(PID.TID 0000.0001) // =======================================================
(PID.TID 0000.0001) %MON land_time_sec                =   1.8000000000000E+03
(PID.TID 0000.0001) %MON land_SnwH_ave_G              =   1.5324495261819E-01
(PID.TID 0000.0001) %MON land_SnwH_ave_S              =   5.5905996335285E-01
(PID.TID 0000.0001) %MON land_SnwH_ave_T              =   0.0000000000000E+00
(PID.TID 0000.0001) %MON land_SnwH_ave_N              =   1.2393350830717E-01
(PID.TID 0000.0001) %MON land_SnwH_max_S              =   9.9999800545357E-01
(PID.TID 0000.0001) %MON land_SnwH_max_T              =   0.0000000000000E+00
(PID.TID 0000.0001) %MON land_SnwH_max_N              =   9.9999970604005E-01
(PID.TID 0000.0001) %MON land_Tsrf_ave_G              =  -5.7022257707081E+00
(PID.TID 0000.0001) %MON land_Tsrf_ave_S              =  -5.7476523191195E+00
(PID.TID 0000.0001) %MON land_Tsrf_ave_T              =   1.6283403048999E+01
(PID.TID 0000.0001) %MON land_Tsrf_ave_N              =  -2.0368846014711E+01
(PID.TID 0000.0001) %MON land_Tsrf_min_S              =  -3.4486678107694E+01
(PID.TID 0000.0001) %MON land_Tsrf_min_T              =  -7.0475647937958E+00
(PID.TID 0000.0001) %MON land_Tsrf_min_N              =  -4.9789633415213E+01
(PID.TID 0000.0001) %MON land_Tsrf_max_S              =   2.8298542701536E+01
(PID.TID 0000.0001) %MON land_Tsrf_max_T              =   3.1353329814468E+01
(PID.TID 0000.0001) %MON land_Tsrf_max_N              =   1.3563984245664E+01
(PID.TID 0000.0001) %MON land_Tgr1_ave_G              =  -4.3138576753691E+00
(PID.TID 0000.0001) %MON land_Tgr1_ave_S              =  -4.8556516774095E+00
(PID.TID 0000.0001) %MON land_Tgr1_ave_T              =   1.6283403048999E+01
(PID.TID 0000.0001) %MON land_Tgr1_ave_N              =  -1.7892347958969E+01
(PID.TID 0000.0001) %MON land_Tgr1_min_S              =  -3.9035412232954E+01
(PID.TID 0000.0001) %MON land_Tgr1_min_T              =  -7.0475647937958E+00
(PID.TID 0000.0001) %MON land_Tgr1_min_N              =  -5.4963404828286E+01
(PID.TID 0000.0001) %MON land_Tgr1_max_S              =   2.8298542701536E+01
(PID.TID 0000.0001) %MON land_Tgr1_max_T              =   3.1353329814468E+01
(PID.TID 0000.0001) %MON land_Tgr1_max_N              =   1.3563984245664E+01
(PID.TID 0000.0001) %MON land_Tgr2_ave_G              =   4.2071043060179E+00
(PID.TID 0000.0001) %MON land_Tgr2_ave_S              =  -1.8730945683546E+01
(PID.TID 0000.0001) %MON land_Tgr2_ave_T              =   2.2012818166539E+01
(PID.TID 0000.0001) %MON land_Tgr2_ave_N              =  -2.4206410007915E-01
(PID.TID 0000.0001) %MON land_Tgr2_min_S              =  -6.4760559179900E+01
(PID.TID 0000.0001) %MON land_Tgr2_min_T              =  -9.7049910210562E+00
(PID.TID 0000.0001) %MON land_Tgr2_min_N              =  -4.0194583712484E+01
(PID.TID 0000.0001) %MON land_Tgr2_max_S              =   2.3360456228703E+01
(PID.TID 0000.0001) %MON land_Tgr2_max_T              =   3.1359846933054E+01
(PID.TID 0000.0001) %MON land_Tgr2_max_N              =   2.9831342450431E+01
(PID.TID 0000.0001) %MON land_TotEnerg_G              =  -6.2755138210807E+21
(PID.TID 0000.0001) %MON land_TotEnerg_S              =  -4.9946858153310E+21
(PID.TID 0000.0001) %MON land_TotEnerg_T              =   7.3299593625446E+21
(PID.TID 0000.0001) %MON land_TotEnerg_N              =  -8.6107873682943E+21
(PID.TID 0000.0001) %MON land_grdW_ave_G              =   4.8698184328739E-01
(PID.TID 0000.0001) %MON land_grdW_ave_S              =   3.0872085303029E-01
(PID.TID 0000.0001) %MON land_grdW_ave_T              =   5.6474441113818E-01
(PID.TID 0000.0001) %MON land_grdW_ave_N              =   4.9288106651271E-01
(PID.TID 0000.0001) %MON land_grdW_min_S              =   2.5981812215860E-02
(PID.TID 0000.0001) %MON land_grdW_min_T              =   0.0000000000000E+00
(PID.TID 0000.0001) %MON land_grdW_min_N              =   0.0000000000000E+00
(PID.TID 0000.0001) // =======================================================
(PID.TID 0000.0001) // End MONITOR Land statistics
(PID.TID 0000.0001) // =======================================================
(PID.TID 0000.0001) // =======================================================
(PID.TID 0000.0001) // Begin MONITOR Therm.SeaIce statistics
(PID.TID 0000.0001) // =======================================================
(PID.TID 0000.0001) %MON thSI_time_sec                =   1.8000000000000E+03
(PID.TID 0000.0001) %MON thSI_Ice_Area_G              =   1.1785123830875E+12
(PID.TID 0000.0001) %MON thSI_Ice_Area_S              =   6.7348878702817E+10
(PID.TID 0000.0001) %MON thSI_Ice_Area_N              =   1.1111635043847E+12
(PID.TID 0000.0001) %MON thSI_IceH_ave_G              =   1.0070284732911E-01
(PID.TID 0000.0001) %MON thSI_IceH_ave_S              =   9.9991982220705E-02
(PID.TID 0000.0001) %MON thSI_IceH_ave_N              =   1.0074593366858E-01
(PID.TID 0000.0001) %MON thSI_IceH_max_S              =   9.9992018598450E-02
(PID.TID 0000.0001) %MON thSI_IceH_max_N              =   1.0077440380095E-01
(PID.TID 0000.0001) %MON thSI_SnwH_ave_G              =   0.0000000000000E+00
(PID.TID 0000.0001) %MON thSI_SnwH_ave_S              =   0.0000000000000E+00
(PID.TID 0000.0001) %MON thSI_SnwH_ave_N              =   0.0000000000000E+00
(PID.TID 0000.0001) %MON thSI_SnwH_max_S              =   0.0000000000000E+00
(PID.TID 0000.0001) %MON thSI_SnwH_max_N              =   0.0000000000000E+00
(PID.TID 0000.0001) %MON thSI_Tsrf_ave_G              =  -4.8750283485773E+00
(PID.TID 0000.0001) %MON thSI_Tsrf_ave_S              =  -1.5890432672891E+00
(PID.TID 0000.0001) %MON thSI_Tsrf_ave_N              =  -5.0741956266472E+00
(PID.TID 0000.0001) %MON thSI_Tsrf_min_S              =  -1.6287817680400E+00
(PID.TID 0000.0001) %MON thSI_Tsrf_min_N              =  -5.1731378307794E+00
(PID.TID 0000.0001) %MON thSI_Tsrf_max_S              =  -1.5540109153190E+00
(PID.TID 0000.0001) %MON thSI_Tsrf_max_N              =  -4.5826834154172E+00
(PID.TID 0000.0001) %MON thSI_Tic1_ave_G              =  -2.7429156209008E+00
(PID.TID 0000.0001) %MON thSI_Tic1_ave_S              =  -1.7822826958441E+00
(PID.TID 0000.0001) %MON thSI_Tic1_ave_N              =  -2.8007049323856E+00
(PID.TID 0000.0001) %MON thSI_Tic1_min_S              =  -1.7901833859813E+00
(PID.TID 0000.0001) %MON thSI_Tic1_min_N              =  -2.8325093073791E+00
(PID.TID 0000.0001) %MON thSI_Tic1_max_S              =  -1.7748608960910E+00
(PID.TID 0000.0001) %MON thSI_Tic1_max_N              =  -2.6344066517535E+00
(PID.TID 0000.0001) %MON thSI_Tic2_ave_G              =  -2.0482523797388E+00
(PID.TID 0000.0001) %MON thSI_Tic2_ave_S              =  -1.8694030860109E+00
(PID.TID 0000.0001) %MON thSI_Tic2_ave_N              =  -2.0590115128837E+00
(PID.TID 0000.0001) %MON thSI_Tic2_min_S              =  -1.8708636348368E+00
(PID.TID 0000.0001) %MON thSI_Tic2_min_N              =  -2.0647576845083E+00
(PID.TID 0000.0001) %MON thSI_Tic2_max_S              =  -1.8680011556008E+00
(PID.TID 0000.0001) %MON thSI_Tic2_max_N              =  -2.0290363956885E+00
(PID.TID 0000.0001) %MON thSI_TotEnerg_G              =  -3.5864874136155E+19
(PID.TID 0000.0001) // =======================================================
(PID.TID 0000.0001) // End MONITOR Therm.SeaIce statistics
(PID.TID 0000.0001) // =======================================================
 cg2d: Sum(rhs),rhsMax =  -3.56976670445874E-11  1.78276714140378E+04
(PID.TID 0000.0001)      cg2d_init_res =   2.28369393762706E+04
(PID.TID 0000.0001)      cg2d_iters(min,last) =      -1      16
(PID.TID 0000.0001)      cg2d_last_res =   7.51166384384432E-11
(PID.TID 0000.0001) // =======================================================
(PID.TID 0000.0001) // Begin MONITOR dynamic field statistics
(PID.TID 0000.0001) // =======================================================
(PID.TID 0000.0001) %MON time_tsnumber                =                     5
(PID.TID 0000.0001) %MON time_secondsf                =   2.2500000000000E+03
(PID.TID 0000.0001) %MON dynstat_eta_max              =   3.1869088280332E+03
(PID.TID 0000.0001) %MON dynstat_eta_min              =  -2.5557751288461E+03
(PID.TID 0000.0001) %MON dynstat_eta_mean             =   2.9244699710755E-15
(PID.TID 0000.0001) %MON dynstat_eta_sd               =   2.8779199756246E+02
(PID.TID 0000.0001) %MON dynstat_eta_del2             =   5.3343080853959E+00
(PID.TID 0000.0001) %MON dynstat_uvel_max             =   7.7061037818873E+00
(PID.TID 0000.0001) %MON dynstat_uvel_min             =  -7.6411716675333E+00
(PID.TID 0000.0001) %MON dynstat_uvel_mean            =  -4.1896182884481E-03
(PID.TID 0000.0001) %MON dynstat_uvel_sd              =   6.7815539885839E-01
(PID.TID 0000.0001) %MON dynstat_uvel_del2            =   1.8004897514976E-03
(PID.TID 0000.0001) %MON dynstat_vvel_max             =   8.0033370605934E+00
(PID.TID 0000.0001) %MON dynstat_vvel_min             =  -8.9447776873088E+00
(PID.TID 0000.0001) %MON dynstat_vvel_mean            =   6.0450176912184E-03
(PID.TID 0000.0001) %MON dynstat_vvel_sd              =   6.3507762422331E-01
(PID.TID 0000.0001) %MON dynstat_vvel_del2            =   1.7774842501897E-03
(PID.TID 0000.0001) %MON dynstat_wvel_max             =   1.6152252437179E-01
(PID.TID 0000.0001) %MON dynstat_wvel_min             =  -4.9742040434627E-01
(PID.TID 0000.0001) %MON dynstat_wvel_mean            =  -2.3870407216566E-03
(PID.TID 0000.0001) %MON dynstat_wvel_sd              =   1.9932853211875E-02
(PID.TID 0000.0001) %MON dynstat_wvel_del2            =   2.3288331523957E-04
(PID.TID 0000.0001) %MON dynstat_theta_max            =   4.3782460411225E+02
(PID.TID 0000.0001) %MON dynstat_theta_min            =   2.8834886291413E+02
(PID.TID 0000.0001) %MON dynstat_theta_mean           =   3.3171645469131E+02
(PID.TID 0000.0001) %MON dynstat_theta_sd             =   4.7417845326445E+01
(PID.TID 0000.0001) %MON dynstat_theta_del2           =   8.6843076281467E-04
(PID.TID 0000.0001) %MON dynstat_salt_max             =   1.9269156002579E+00
(PID.TID 0000.0001) %MON dynstat_salt_min             =  -9.3622616113943E-04
(PID.TID 0000.0001) %MON dynstat_salt_mean            =   1.9921086642067E-02
(PID.TID 0000.0001) %MON dynstat_salt_sd              =   8.5476169350801E-02
(PID.TID 0000.0001) %MON dynstat_salt_del2            =   3.8876360125710E-04
(PID.TID 0000.0001) %MON advcfl_uvel_max              =   1.0923088040515E-02
(PID.TID 0000.0001) %MON advcfl_vvel_max              =   1.2722595992264E-02
(PID.TID 0000.0001) %MON advcfl_wvel_max              =   8.1396066165753E-03
(PID.TID 0000.0001) %MON advcfl_W_hf_max              =   1.2834718668965E-02
(PID.TID 0000.0001) %MON am_eta_mean                  =  -4.5583662862070E+08
(PID.TID 0000.0001) %MON am_uZo_mean                  =   4.3921688532019E+08
(PID.TID 0000.0001) %MON am_tot_mean                  =  -1.6619743300502E+07
(PID.TID 0000.0001) %MON pe_b_mean                    =  -5.5706826190952E-01
(PID.TID 0000.0001) %MON ke_max                       =   3.3811083951110E+01
(PID.TID 0000.0001) %MON ke_mean                      =   4.2909280352702E-01
(PID.TID 0000.0001) %MON ke_vol                       =   4.9523908919847E+19
(PID.TID 0000.0001) %MON vort_r_min                   =  -2.6166335309786E-05
(PID.TID 0000.0001) %MON vort_r_max                   =   1.3399680426912E-05
(PID.TID 0000.0001) %MON vort_a_mean                  =   6.7242814765271E-08
(PID.TID 0000.0001) %MON vort_a_sd                    =   8.3941398953425E-05
(PID.TID 0000.0001) %MON vort_p_mean                  =   6.8939448891837E-08
(PID.TID 0000.0001) %MON vort_p_sd                    =   9.1721365472131E-05
(PID.TID 0000.0001) %MON surfExpan_theta_mean         =   2.3081814361676E-01
(PID.TID 0000.0001) %MON surfExpan_salt_mean          =  -9.7871913471784E-06
(PID.TID 0000.0001) %MON surfExpan_Heat_mean          =  -1.9025329722279E+01
(PID.TID 0000.0001) %MON En_Budget_T2PE_mean          =   3.6071313686507E+01
(PID.TID 0000.0001) // =======================================================
(PID.TID 0000.0001) // End MONITOR dynamic field statistics
(PID.TID 0000.0001) // =======================================================
(PID.TID 0000.0001) // =======================================================
(PID.TID 0000.0001) // Begin MONITOR Land statistics
(PID.TID 0000.0001) // =======================================================
(PID.TID 0000.0001) %MON land_time_sec                =   2.2500000000000E+03
(PID.TID 0000.0001) %MON land_SnwH_ave_G              =   1.5324375395076E-01
(PID.TID 0000.0001) %MON land_SnwH_ave_S              =   5.5905911614693E-01
(PID.TID 0000.0001) %MON land_SnwH_ave_T              =   0.0000000000000E+00
(PID.TID 0000.0001) %MON land_SnwH_ave_N              =   1.2393139519291E-01
(PID.TID 0000.0001) %MON land_SnwH_max_S              =   9.9999747502186E-01
(PID.TID 0000.0001) %MON land_SnwH_max_T              =   0.0000000000000E+00
(PID.TID 0000.0001) %MON land_SnwH_max_N              =   9.9999960963290E-01
(PID.TID 0000.0001) %MON land_Tsrf_ave_G              =  -5.9693456576332E+00
(PID.TID 0000.0001) %MON land_Tsrf_ave_S              =  -5.8041458917957E+00
(PID.TID 0000.0001) %MON land_Tsrf_ave_T              =   1.5593507019427E+01
(PID.TID 0000.0001) %MON land_Tsrf_ave_N              =  -2.0421974320186E+01
(PID.TID 0000.0001) %MON land_Tsrf_min_S              =  -3.4276277102348E+01
(PID.TID 0000.0001) %MON land_Tsrf_min_T              =  -6.8207572290866E+00
(PID.TID 0000.0001) %MON land_Tsrf_min_N              =  -4.9237483529083E+01
(PID.TID 0000.0001) %MON land_Tsrf_max_S              =   2.7364521511819E+01
(PID.TID 0000.0001) %MON land_Tsrf_max_T              =   3.0172667959748E+01
(PID.TID 0000.0001) %MON land_Tsrf_max_N              =   1.3050471044236E+01
(PID.TID 0000.0001) %MON land_Tgr1_ave_G              =  -4.6269800172932E+00
(PID.TID 0000.0001) %MON land_Tgr1_ave_S              =  -5.1315396892887E+00
(PID.TID 0000.0001) %MON land_Tgr1_ave_T              =   1.5593507019427E+01
(PID.TID 0000.0001) %MON land_Tgr1_ave_N              =  -1.7965950502801E+01
(PID.TID 0000.0001) %MON land_Tgr1_min_S              =  -3.9047341052705E+01
(PID.TID 0000.0001) %MON land_Tgr1_min_T              =  -6.8207572290866E+00
(PID.TID 0000.0001) %MON land_Tgr1_min_N              =  -5.4947760342824E+01
(PID.TID 0000.0001) %MON land_Tgr1_max_S              =   2.7364521511819E+01
(PID.TID 0000.0001) %MON land_Tgr1_max_T              =   3.0172667959748E+01
(PID.TID 0000.0001) %MON land_Tgr1_max_N              =   1.3050471044236E+01
(PID.TID 0000.0001) %MON land_Tgr2_ave_G              =   4.2069705015634E+00
(PID.TID 0000.0001) %MON land_Tgr2_ave_S              =  -1.8730719568477E+01
(PID.TID 0000.0001) %MON land_Tgr2_ave_T              =   2.2012711331931E+01
(PID.TID 0000.0001) %MON land_Tgr2_ave_N              =  -2.4233266990467E-01
(PID.TID 0000.0001) %MON land_Tgr2_min_S              =  -6.4760125403121E+01
(PID.TID 0000.0001) %MON land_Tgr2_min_T              =  -9.7049545776175E+00
(PID.TID 0000.0001) %MON land_Tgr2_min_N              =  -4.0194824103801E+01
(PID.TID 0000.0001) %MON land_Tgr2_max_S              =   2.3360519816175E+01
(PID.TID 0000.0001) %MON land_Tgr2_max_T              =   3.1359538888375E+01
(PID.TID 0000.0001) %MON land_Tgr2_max_N              =   2.9830963130809E+01
(PID.TID 0000.0001) %MON land_TotEnerg_G              =  -6.2834916760492E+21
(PID.TID 0000.0001) %MON land_TotEnerg_S              =  -4.9956265787458E+21
(PID.TID 0000.0001) %MON land_TotEnerg_T              =   7.3239217999001E+21
(PID.TID 0000.0001) %MON land_TotEnerg_N              =  -8.6117868972035E+21
(PID.TID 0000.0001) %MON land_grdW_ave_G              =   4.8696578037710E-01
(PID.TID 0000.0001) %MON land_grdW_ave_S              =   3.0870857917987E-01
(PID.TID 0000.0001) %MON land_grdW_ave_T              =   5.6470297636491E-01
(PID.TID 0000.0001) %MON land_grdW_ave_N              =   4.9288071703840E-01
(PID.TID 0000.0001) %MON land_grdW_min_S              =   2.6017275998607E-02
(PID.TID 0000.0001) %MON land_grdW_min_T              =   0.0000000000000E+00
(PID.TID 0000.0001) %MON land_grdW_min_N              =   0.0000000000000E+00
(PID.TID 0000.0001) // =======================================================
(PID.TID 0000.0001) // End MONITOR Land statistics
(PID.TID 0000.0001) // =======================================================
(PID.TID 0000.0001) // =======================================================
(PID.TID 0000.0001) // Begin MONITOR Therm.SeaIce statistics
(PID.TID 0000.0001) // =======================================================
(PID.TID 0000.0001) %MON thSI_time_sec                =   2.2500000000000E+03
(PID.TID 0000.0001) %MON thSI_Ice_Area_G              =   1.2151896069585E+12
(PID.TID 0000.0001) %MON thSI_Ice_Area_S              =   6.7346132753355E+10
(PID.TID 0000.0001) %MON thSI_Ice_Area_N              =   1.1478434742052E+12
(PID.TID 0000.0001) %MON thSI_IceH_ave_G              =   1.0098651765055E-01
(PID.TID 0000.0001) %MON thSI_IceH_ave_S              =   9.9989262106075E-02
(PID.TID 0000.0001) %MON thSI_IceH_ave_N              =   1.0104502850660E-01
(PID.TID 0000.0001) %MON thSI_IceH_max_S              =   9.9989330425743E-02
(PID.TID 0000.0001) %MON thSI_IceH_max_N              =   1.0108459585704E-01
(PID.TID 0000.0001) %MON thSI_SnwH_ave_G              =   0.0000000000000E+00
(PID.TID 0000.0001) %MON thSI_SnwH_ave_S              =   0.0000000000000E+00
(PID.TID 0000.0001) %MON thSI_SnwH_ave_N              =   0.0000000000000E+00
(PID.TID 0000.0001) %MON thSI_SnwH_max_S              =   0.0000000000000E+00
(PID.TID 0000.0001) %MON thSI_SnwH_max_N              =   0.0000000000000E+00
(PID.TID 0000.0001) %MON thSI_Tsrf_ave_G              =  -5.1669505253161E+00
(PID.TID 0000.0001) %MON thSI_Tsrf_ave_S              =  -1.5483315847691E+00
(PID.TID 0000.0001) %MON thSI_Tsrf_ave_N              =  -5.3792616958114E+00
(PID.TID 0000.0001) %MON thSI_Tsrf_min_S              =  -1.5951366598668E+00
(PID.TID 0000.0001) %MON thSI_Tsrf_min_N              =  -5.4912567116476E+00
(PID.TID 0000.0001) %MON thSI_Tsrf_max_S              =  -1.5067692710389E+00
(PID.TID 0000.0001) %MON thSI_Tsrf_max_N              =  -4.8219279357065E+00
(PID.TID 0000.0001) %MON thSI_Tic1_ave_G              =  -3.0630682139964E+00
(PID.TID 0000.0001) %MON thSI_Tic1_ave_S              =  -1.7494035965359E+00
(PID.TID 0000.0001) %MON thSI_Tic1_ave_N              =  -3.1393380667515E+00
(PID.TID 0000.0001) %MON thSI_Tic1_min_S              =  -1.7603943449865E+00
(PID.TID 0000.0001) %MON thSI_Tic1_min_N              =  -3.1843854995143E+00
(PID.TID 0000.0001) %MON thSI_Tic1_max_S              =  -1.7392902942475E+00
(PID.TID 0000.0001) %MON thSI_Tic1_max_N              =  -2.9046307760214E+00
(PID.TID 0000.0001) %MON thSI_Tic2_ave_G              =  -2.1324324586193E+00
(PID.TID 0000.0001) %MON thSI_Tic2_ave_S              =  -1.8598248965244E+00
(PID.TID 0000.0001) %MON thSI_Tic2_ave_N              =  -2.1482597393001E+00
(PID.TID 0000.0001) %MON thSI_Tic2_min_S              =  -1.8620935822994E+00
(PID.TID 0000.0001) %MON thSI_Tic2_min_N              =  -2.1573073681810E+00
(PID.TID 0000.0001) %MON thSI_Tic2_max_S              =  -1.8577021428848E+00
(PID.TID 0000.0001) %MON thSI_Tic2_max_N              =  -2.1012541735781E+00
(PID.TID 0000.0001) %MON thSI_TotEnerg_G              =  -3.7168053680251E+19
(PID.TID 0000.0001) // =======================================================
(PID.TID 0000.0001) // End MONITOR Therm.SeaIce statistics
(PID.TID 0000.0001) // =======================================================
 cg2d: Sum(rhs),rhsMax =   3.13775672111660E-11  2.02034502647364E+04
(PID.TID 0000.0001)      cg2d_init_res =   2.12665876417278E+04
(PID.TID 0000.0001)      cg2d_iters(min,last) =      -1      16
(PID.TID 0000.0001)      cg2d_last_res =   6.88024360236304E-11
(PID.TID 0000.0001) // =======================================================
(PID.TID 0000.0001) // Begin MONITOR dynamic field statistics
(PID.TID 0000.0001) // =======================================================
(PID.TID 0000.0001) %MON time_tsnumber                =                     6
(PID.TID 0000.0001) %MON time_secondsf                =   2.7000000000000E+03
(PID.TID 0000.0001) %MON dynstat_eta_max              =   3.6200377929298E+03
(PID.TID 0000.0001) %MON dynstat_eta_min              =  -2.6502710342570E+03
(PID.TID 0000.0001) %MON dynstat_eta_mean             =   5.3092308916950E-15
(PID.TID 0000.0001) %MON dynstat_eta_sd               =   3.2617105700584E+02
(PID.TID 0000.0001) %MON dynstat_eta_del2             =   5.0906272001513E+00
(PID.TID 0000.0001) %MON dynstat_uvel_max             =   7.8614264095710E+00
(PID.TID 0000.0001) %MON dynstat_uvel_min             =  -8.0028045639790E+00
(PID.TID 0000.0001) %MON dynstat_uvel_mean            =  -4.9041591096293E-03
(PID.TID 0000.0001) %MON dynstat_uvel_sd              =   7.2028148509094E-01
(PID.TID 0000.0001) %MON dynstat_uvel_del2            =   1.8075091528748E-03
(PID.TID 0000.0001) %MON dynstat_vvel_max             =   8.1945607946491E+00
(PID.TID 0000.0001) %MON dynstat_vvel_min             =  -8.7079805281699E+00
(PID.TID 0000.0001) %MON dynstat_vvel_mean            =   7.4802377035496E-03
(PID.TID 0000.0001) %MON dynstat_vvel_sd              =   6.9149038407249E-01
(PID.TID 0000.0001) %MON dynstat_vvel_del2            =   1.8318546472849E-03
(PID.TID 0000.0001) %MON dynstat_wvel_max             =   2.2444549217211E-01
(PID.TID 0000.0001) %MON dynstat_wvel_min             =  -4.6208494181272E-01
(PID.TID 0000.0001) %MON dynstat_wvel_mean            =  -2.2179471691844E-03
(PID.TID 0000.0001) %MON dynstat_wvel_sd              =   2.0798783494820E-02
(PID.TID 0000.0001) %MON dynstat_wvel_del2            =   2.4984303878301E-04
(PID.TID 0000.0001) %MON dynstat_theta_max            =   4.3814242515980E+02
(PID.TID 0000.0001) %MON dynstat_theta_min            =   2.8810525133866E+02
(PID.TID 0000.0001) %MON dynstat_theta_mean           =   3.3171582519184E+02
(PID.TID 0000.0001) %MON dynstat_theta_sd             =   4.7418855134364E+01
(PID.TID 0000.0001) %MON dynstat_theta_del2           =   1.1687303618470E-03
(PID.TID 0000.0001) %MON dynstat_salt_max             =   2.1961069995062E+00
(PID.TID 0000.0001) %MON dynstat_salt_min             =  -9.9330869408560E-04
(PID.TID 0000.0001) %MON dynstat_salt_mean            =   2.3766545986823E-02
(PID.TID 0000.0001) %MON dynstat_salt_sd              =   1.0156506509761E-01
(PID.TID 0000.0001) %MON dynstat_salt_del2            =   4.4127801110348E-04
(PID.TID 0000.0001) %MON advcfl_uvel_max              =   1.1508049227573E-02
(PID.TID 0000.0001) %MON advcfl_vvel_max              =   1.2407159163182E-02
(PID.TID 0000.0001) %MON advcfl_wvel_max              =   7.5613899569355E-03
(PID.TID 0000.0001) %MON advcfl_W_hf_max              =   1.4214660624654E-02
(PID.TID 0000.0001) %MON am_eta_mean                  =  -6.8508192926172E+08
(PID.TID 0000.0001) %MON am_uZo_mean                  =   6.6754066983919E+08
(PID.TID 0000.0001) %MON am_tot_mean                  =  -1.7541259422525E+07
(PID.TID 0000.0001) %MON pe_b_mean                    =  -6.2931504944842E-01
(PID.TID 0000.0001) %MON ke_max                       =   3.6328133203485E+01
(PID.TID 0000.0001) %MON ke_mean                      =   4.9558556004163E-01
(PID.TID 0000.0001) %MON ke_vol                       =   4.9523908919847E+19
(PID.TID 0000.0001) %MON vort_r_min                   =  -2.7974062535298E-05
(PID.TID 0000.0001) %MON vort_r_max                   =   1.3079294732105E-05
(PID.TID 0000.0001) %MON vort_a_mean                  =   6.7242814765336E-08
(PID.TID 0000.0001) %MON vort_a_sd                    =   8.3943237089212E-05
(PID.TID 0000.0001) %MON vort_p_mean                  =   6.8939448919058E-08
(PID.TID 0000.0001) %MON vort_p_sd                    =   9.1754063623364E-05
(PID.TID 0000.0001) %MON surfExpan_theta_mean         =   2.1570794308578E-01
(PID.TID 0000.0001) %MON surfExpan_salt_mean          =  -2.2031811667828E-05
(PID.TID 0000.0001) %MON surfExpan_Heat_mean          =  -1.7744848590660E+01
(PID.TID 0000.0001) %MON En_Budget_T2PE_mean          =   3.3613899020331E+01
(PID.TID 0000.0001) // =======================================================
(PID.TID 0000.0001) // End MONITOR dynamic field statistics
(PID.TID 0000.0001) // =======================================================
(PID.TID 0000.0001) // =======================================================
(PID.TID 0000.0001) // Begin MONITOR Land statistics
(PID.TID 0000.0001) // =======================================================
(PID.TID 0000.0001) %MON land_time_sec                =   2.7000000000000E+03
(PID.TID 0000.0001) %MON land_SnwH_ave_G              =   1.5324262459997E-01
(PID.TID 0000.0001) %MON land_SnwH_ave_S              =   5.5905822537431E-01
(PID.TID 0000.0001) %MON land_SnwH_ave_T              =   0.0000000000000E+00
(PID.TID 0000.0001) %MON land_SnwH_ave_N              =   1.2392943430156E-01
(PID.TID 0000.0001) %MON land_SnwH_max_S              =   9.9999692804260E-01
(PID.TID 0000.0001) %MON land_SnwH_max_T              =   0.0000000000000E+00
(PID.TID 0000.0001) %MON land_SnwH_max_N              =   9.9999951332980E-01
(PID.TID 0000.0001) %MON land_Tsrf_ave_G              =  -6.2128331968580E+00
(PID.TID 0000.0001) %MON land_Tsrf_ave_S              =  -5.8516814397387E+00
(PID.TID 0000.0001) %MON land_Tsrf_ave_T              =   1.4980624162437E+01
(PID.TID 0000.0001) %MON land_Tsrf_ave_N              =  -2.0482356161955E+01
(PID.TID 0000.0001) %MON land_Tsrf_min_S              =  -3.4022193787496E+01
(PID.TID 0000.0001) %MON land_Tsrf_min_T              =  -6.6032914159558E+00
(PID.TID 0000.0001) %MON land_Tsrf_min_N              =  -4.9118065744541E+01
(PID.TID 0000.0001) %MON land_Tsrf_max_S              =   2.6531745241334E+01
(PID.TID 0000.0001) %MON land_Tsrf_max_T              =   2.9108672315604E+01
(PID.TID 0000.0001) %MON land_Tsrf_max_N              =   1.2569383543975E+01
(PID.TID 0000.0001) %MON land_Tgr1_ave_G              =  -4.9070218351010E+00
(PID.TID 0000.0001) %MON land_Tgr1_ave_S              =  -5.3758178769558E+00
(PID.TID 0000.0001) %MON land_Tgr1_ave_T              =   1.4980624162437E+01
(PID.TID 0000.0001) %MON land_Tgr1_ave_N              =  -1.8035332367036E+01
(PID.TID 0000.0001) %MON land_Tgr1_min_S              =  -3.9058997186993E+01
(PID.TID 0000.0001) %MON land_Tgr1_min_T              =  -6.6032914159558E+00
(PID.TID 0000.0001) %MON land_Tgr1_min_N              =  -5.4932025383516E+01
(PID.TID 0000.0001) %MON land_Tgr1_max_S              =   2.6531745241334E+01
(PID.TID 0000.0001) %MON land_Tgr1_max_T              =   2.9108672315604E+01
(PID.TID 0000.0001) %MON land_Tgr1_max_N              =   1.2569383543975E+01
(PID.TID 0000.0001) %MON land_Tgr2_ave_G              =   4.2068321040292E+00
(PID.TID 0000.0001) %MON land_Tgr2_ave_S              =  -1.8730497340802E+01
(PID.TID 0000.0001) %MON land_Tgr2_ave_T              =   2.2012594602843E+01
(PID.TID 0000.0001) %MON land_Tgr2_ave_N              =  -2.4260252161022E-01
(PID.TID 0000.0001) %MON land_Tgr2_min_S              =  -6.4759691845951E+01
(PID.TID 0000.0001) %MON land_Tgr2_min_T              =  -9.7049153867104E+00
(PID.TID 0000.0001) %MON land_Tgr2_min_N              =  -4.0195064214878E+01
(PID.TID 0000.0001) %MON land_Tgr2_max_S              =   2.3360568374316E+01
(PID.TID 0000.0001) %MON land_Tgr2_max_T              =   3.1359218131242E+01
(PID.TID 0000.0001) %MON land_Tgr2_max_N              =   2.9830573168231E+01
(PID.TID 0000.0001) %MON land_TotEnerg_G              =  -6.2906405953455E+21
(PID.TID 0000.0001) %MON land_TotEnerg_S              =  -4.9964557152352E+21
(PID.TID 0000.0001) %MON land_TotEnerg_T              =   7.3185680444488E+21
(PID.TID 0000.0001) %MON land_TotEnerg_N              =  -8.6127529245592E+21
(PID.TID 0000.0001) %MON land_grdW_ave_G              =   4.8695067524318E-01
(PID.TID 0000.0001) %MON land_grdW_ave_S              =   3.0869685623823E-01
(PID.TID 0000.0001) %MON land_grdW_ave_T              =   5.6466415807225E-01
(PID.TID 0000.0001) %MON land_grdW_ave_N              =   4.9288034969192E-01
(PID.TID 0000.0001) %MON land_grdW_min_S              =   2.6060365062774E-02
(PID.TID 0000.0001) %MON land_grdW_min_T              =   0.0000000000000E+00
(PID.TID 0000.0001) %MON land_grdW_min_N              =   0.0000000000000E+00
(PID.TID 0000.0001) // =======================================================
(PID.TID 0000.0001) // End MONITOR Land statistics
(PID.TID 0000.0001) // =======================================================
(PID.TID 0000.0001) // =======================================================
(PID.TID 0000.0001) // Begin MONITOR Therm.SeaIce statistics
(PID.TID 0000.0001) // =======================================================
(PID.TID 0000.0001) %MON thSI_time_sec                =   2.7000000000000E+03
(PID.TID 0000.0001) %MON thSI_Ice_Area_G              =   1.2512716940895E+12
(PID.TID 0000.0001) %MON thSI_Ice_Area_S              =   6.7342511260264E+10
(PID.TID 0000.0001) %MON thSI_Ice_Area_N              =   1.1839291828292E+12
(PID.TID 0000.0001) %MON thSI_IceH_ave_G              =   1.0127967672605E-01
(PID.TID 0000.0001) %MON thSI_IceH_ave_S              =   9.9986509536705E-02
(PID.TID 0000.0001) %MON thSI_IceH_ave_N              =   1.0135323275227E-01
(PID.TID 0000.0001) %MON thSI_IceH_max_S              =   9.9986633892351E-02
(PID.TID 0000.0001) %MON thSI_IceH_max_N              =   1.0140418088756E-01
(PID.TID 0000.0001) %MON thSI_SnwH_ave_G              =   0.0000000000000E+00
(PID.TID 0000.0001) %MON thSI_SnwH_ave_S              =   0.0000000000000E+00
(PID.TID 0000.0001) %MON thSI_SnwH_ave_N              =   0.0000000000000E+00
(PID.TID 0000.0001) %MON thSI_SnwH_max_S              =   0.0000000000000E+00
(PID.TID 0000.0001) %MON thSI_SnwH_max_N              =   0.0000000000000E+00
(PID.TID 0000.0001) %MON thSI_Tsrf_ave_G              =  -5.4595419592385E+00
(PID.TID 0000.0001) %MON thSI_Tsrf_ave_S              =  -1.5078582934828E+00
(PID.TID 0000.0001) %MON thSI_Tsrf_ave_N              =  -5.6843157933645E+00
(PID.TID 0000.0001) %MON thSI_Tsrf_min_S              =  -1.5601184704913E+00
(PID.TID 0000.0001) %MON thSI_Tsrf_min_N              =  -5.8093495413481E+00
(PID.TID 0000.0001) %MON thSI_Tsrf_max_S              =  -1.4602294350458E+00
(PID.TID 0000.0001) %MON thSI_Tsrf_max_N              =  -5.0612504377447E+00
(PID.TID 0000.0001) %MON thSI_Tic1_ave_G              =  -3.3846400586105E+00
(PID.TID 0000.0001) %MON thSI_Tic1_ave_S              =  -1.7176346701773E+00
(PID.TID 0000.0001) %MON thSI_Tic1_ave_N              =  -3.4781815710940E+00
(PID.TID 0000.0001) %MON thSI_Tic1_min_S              =  -1.7316816585630E+00
(PID.TID 0000.0001) %MON thSI_Tic1_min_N              =  -3.5365311543076E+00
(PID.TID 0000.0001) %MON thSI_Tic1_max_S              =  -1.7047557636633E+00
(PID.TID 0000.0001) %MON thSI_Tic1_max_N              =  -3.1748197650330E+00
(PID.TID 0000.0001) %MON thSI_Tic2_ave_G              =  -2.2243725556284E+00
(PID.TID 0000.0001) %MON thSI_Tic2_ave_S              =  -1.8498757188325E+00
(PID.TID 0000.0001) %MON thSI_Tic2_ave_N              =  -2.2453868851424E+00
(PID.TID 0000.0001) %MON thSI_Tic2_min_S              =  -1.8530297495075E+00
(PID.TID 0000.0001) %MON thSI_Tic2_min_N              =  -2.2580980917484E+00
(PID.TID 0000.0001) %MON thSI_Tic2_max_S              =  -1.8469584413597E+00
(PID.TID 0000.0001) %MON thSI_Tic2_max_N              =  -2.1795520778755E+00
(PID.TID 0000.0001) %MON thSI_TotEnerg_G              =  -3.8462282831126E+19
(PID.TID 0000.0001) // =======================================================
(PID.TID 0000.0001) // End MONITOR Therm.SeaIce statistics
(PID.TID 0000.0001) // =======================================================
 cg2d: Sum(rhs),rhsMax =  -9.09494701772928E-11  2.12737392371975E+04
(PID.TID 0000.0001)      cg2d_init_res =   2.01195430407078E+04
(PID.TID 0000.0001)      cg2d_iters(min,last) =      -1      16
(PID.TID 0000.0001)      cg2d_last_res =   6.97461106127305E-11
(PID.TID 0000.0001) // =======================================================
(PID.TID 0000.0001) // Begin MONITOR dynamic field statistics
(PID.TID 0000.0001) // =======================================================
(PID.TID 0000.0001) %MON time_tsnumber                =                     7
(PID.TID 0000.0001) %MON time_secondsf                =   3.1500000000000E+03
(PID.TID 0000.0001) %MON dynstat_eta_max              =   3.8388725854778E+03
(PID.TID 0000.0001) %MON dynstat_eta_min              =  -2.5741589230171E+03
(PID.TID 0000.0001) %MON dynstat_eta_mean             =   9.6645574151422E-15
(PID.TID 0000.0001) %MON dynstat_eta_sd               =   3.5862607114779E+02
(PID.TID 0000.0001) %MON dynstat_eta_del2             =   4.8133797299342E+00
(PID.TID 0000.0001) %MON dynstat_uvel_max             =   7.7002161485540E+00
(PID.TID 0000.0001) %MON dynstat_uvel_min             =  -8.2662931746565E+00
(PID.TID 0000.0001) %MON dynstat_uvel_mean            =  -5.5715488471612E-03
(PID.TID 0000.0001) %MON dynstat_uvel_sd              =   7.4834278396269E-01
(PID.TID 0000.0001) %MON dynstat_uvel_del2            =   1.7976050832911E-03
(PID.TID 0000.0001) %MON dynstat_vvel_max             =   8.3883849222449E+00
(PID.TID 0000.0001) %MON dynstat_vvel_min             =  -8.6324913300601E+00
(PID.TID 0000.0001) %MON dynstat_vvel_mean            =   8.9977706811613E-03
(PID.TID 0000.0001) %MON dynstat_vvel_sd              =   7.4036073361173E-01
(PID.TID 0000.0001) %MON dynstat_vvel_del2            =   1.8993953335457E-03
(PID.TID 0000.0001) %MON dynstat_wvel_max             =   2.6325301397742E-01
(PID.TID 0000.0001) %MON dynstat_wvel_min             =  -4.2554170601256E-01
(PID.TID 0000.0001) %MON dynstat_wvel_mean            =  -2.0370100800698E-03
(PID.TID 0000.0001) %MON dynstat_wvel_sd              =   2.1426331902385E-02
(PID.TID 0000.0001) %MON dynstat_wvel_del2            =   2.5059852214915E-04
(PID.TID 0000.0001) %MON dynstat_theta_max            =   4.3854837303655E+02
(PID.TID 0000.0001) %MON dynstat_theta_min            =   2.8786122567389E+02
(PID.TID 0000.0001) %MON dynstat_theta_mean           =   3.3171501311774E+02
(PID.TID 0000.0001) %MON dynstat_theta_sd             =   4.7420035499303E+01
(PID.TID 0000.0001) %MON dynstat_theta_del2           =   1.4587877927986E-03
(PID.TID 0000.0001) %MON dynstat_salt_max             =   2.4389266229399E+00
(PID.TID 0000.0001) %MON dynstat_salt_min             =  -1.1668060338571E-03
(PID.TID 0000.0001) %MON dynstat_salt_mean            =   2.7575550174386E-02
(PID.TID 0000.0001) %MON dynstat_salt_sd              =   1.1741959812747E-01
(PID.TID 0000.0001) %MON dynstat_salt_del2            =   4.8877919584358E-04
(PID.TID 0000.0001) %MON advcfl_uvel_max              =   1.1886946385230E-02
(PID.TID 0000.0001) %MON advcfl_vvel_max              =   1.2324130226229E-02
(PID.TID 0000.0001) %MON advcfl_wvel_max              =   6.9634097347510E-03
(PID.TID 0000.0001) %MON advcfl_W_hf_max              =   1.4973207132752E-02
(PID.TID 0000.0001) %MON am_eta_mean                  =  -9.5923621966312E+08
(PID.TID 0000.0001) %MON am_uZo_mean                  =   9.4124943478630E+08
(PID.TID 0000.0001) %MON am_tot_mean                  =  -1.7986784876824E+07
(PID.TID 0000.0001) %MON pe_b_mean                    =  -6.8848079832626E-01
(PID.TID 0000.0001) %MON ke_max                       =   3.7814814303146E+01
(PID.TID 0000.0001) %MON ke_mean                      =   5.5086832904160E-01
(PID.TID 0000.0001) %MON ke_vol                       =   4.9523908919847E+19
(PID.TID 0000.0001) %MON vort_r_min                   =  -2.9623335540659E-05
(PID.TID 0000.0001) %MON vort_r_max                   =   1.3375389952770E-05
(PID.TID 0000.0001) %MON vort_a_mean                  =   6.7242814765269E-08
(PID.TID 0000.0001) %MON vort_a_sd                    =   8.3945272934864E-05
(PID.TID 0000.0001) %MON vort_p_mean                  =   6.8939448976093E-08
(PID.TID 0000.0001) %MON vort_p_sd                    =   9.1786086737473E-05
(PID.TID 0000.0001) %MON surfExpan_theta_mean         =   1.9916821323936E-01
(PID.TID 0000.0001) %MON surfExpan_salt_mean          =  -3.6591215976609E-05
(PID.TID 0000.0001) %MON surfExpan_Heat_mean          =  -1.6339079643965E+01
(PID.TID 0000.0001) %MON En_Budget_T2PE_mean          =   3.0931393324068E+01
(PID.TID 0000.0001) // =======================================================
(PID.TID 0000.0001) // End MONITOR dynamic field statistics
(PID.TID 0000.0001) // =======================================================
(PID.TID 0000.0001) // =======================================================
(PID.TID 0000.0001) // Begin MONITOR Land statistics
(PID.TID 0000.0001) // =======================================================
(PID.TID 0000.0001) %MON land_time_sec                =   3.1500000000000E+03
(PID.TID 0000.0001) %MON land_SnwH_ave_G              =   1.5324152126071E-01
(PID.TID 0000.0001) %MON land_SnwH_ave_S              =   5.5905729749466E-01
(PID.TID 0000.0001) %MON land_SnwH_ave_T              =   0.0000000000000E+00
(PID.TID 0000.0001) %MON land_SnwH_ave_N              =   1.2392753726676E-01
(PID.TID 0000.0001) %MON land_SnwH_max_S              =   9.9999635968492E-01
(PID.TID 0000.0001) %MON land_SnwH_max_T              =   0.0000000000000E+00
(PID.TID 0000.0001) %MON land_SnwH_max_N              =   9.9999942070471E-01
(PID.TID 0000.0001) %MON land_Tsrf_ave_G              =  -6.4349021817826E+00
(PID.TID 0000.0001) %MON land_Tsrf_ave_S              =  -5.8976037693688E+00
(PID.TID 0000.0001) %MON land_Tsrf_ave_T              =   1.4434039625496E+01
(PID.TID 0000.0001) %MON land_Tsrf_ave_N              =  -2.0544864106782E+01
(PID.TID 0000.0001) %MON land_Tsrf_min_S              =  -3.3709842055484E+01
(PID.TID 0000.0001) %MON land_Tsrf_min_T              =  -6.3944713860754E+00
(PID.TID 0000.0001) %MON land_Tsrf_min_N              =  -4.9241688144397E+01
(PID.TID 0000.0001) %MON land_Tsrf_max_S              =   2.5788424367432E+01
(PID.TID 0000.0001) %MON land_Tsrf_max_T              =   2.8148550530761E+01
(PID.TID 0000.0001) %MON land_Tsrf_max_N              =   1.2189315815611E+01
(PID.TID 0000.0001) %MON land_Tgr1_ave_G              =  -5.1586684414050E+00
(PID.TID 0000.0001) %MON land_Tgr1_ave_S              =  -5.5926640201883E+00
(PID.TID 0000.0001) %MON land_Tgr1_ave_T              =   1.4434039625496E+01
(PID.TID 0000.0001) %MON land_Tgr1_ave_N              =  -1.8101317155415E+01
(PID.TID 0000.0001) %MON land_Tgr1_min_S              =  -3.9070331264299E+01
(PID.TID 0000.0001) %MON land_Tgr1_min_T              =  -6.3944713860754E+00
(PID.TID 0000.0001) %MON land_Tgr1_min_N              =  -5.4916436745336E+01
(PID.TID 0000.0001) %MON land_Tgr1_max_S              =   2.5788424367432E+01
(PID.TID 0000.0001) %MON land_Tgr1_max_T              =   2.8148550530761E+01
(PID.TID 0000.0001) %MON land_Tgr1_max_N              =   1.2189315815611E+01
(PID.TID 0000.0001) %MON land_Tgr2_ave_G              =   4.2066895994975E+00
(PID.TID 0000.0001) %MON land_Tgr2_ave_S              =  -1.8730278563955E+01
(PID.TID 0000.0001) %MON land_Tgr2_ave_T              =   2.2012469116473E+01
(PID.TID 0000.0001) %MON land_Tgr2_ave_N              =  -2.4287358784781E-01
(PID.TID 0000.0001) %MON land_Tgr2_min_S              =  -6.4759258502966E+01
(PID.TID 0000.0001) %MON land_Tgr2_min_T              =  -9.7048735576565E+00
(PID.TID 0000.0001) %MON land_Tgr2_min_N              =  -4.0195304051685E+01
(PID.TID 0000.0001) %MON land_Tgr2_max_S              =   2.3360603558530E+01
(PID.TID 0000.0001) %MON land_Tgr2_max_T              =   3.1358885847148E+01
(PID.TID 0000.0001) %MON land_Tgr2_max_N              =   2.9830173171619E+01
(PID.TID 0000.0001) %MON land_TotEnerg_G              =  -6.2970771617034E+21
(PID.TID 0000.0001) %MON land_TotEnerg_S              =  -4.9971885140340E+21
(PID.TID 0000.0001) %MON land_TotEnerg_T              =   7.3137995477830E+21
(PID.TID 0000.0001) %MON land_TotEnerg_N              =  -8.6136881954524E+21
(PID.TID 0000.0001) %MON land_grdW_ave_G              =   4.8693642111964E-01
(PID.TID 0000.0001) %MON land_grdW_ave_S              =   3.0868560831223E-01
(PID.TID 0000.0001) %MON land_grdW_ave_T              =   5.6462763786993E-01
(PID.TID 0000.0001) %MON land_grdW_ave_N              =   4.9287998900879E-01
(PID.TID 0000.0001) %MON land_grdW_min_S              =   2.6110046896560E-02
(PID.TID 0000.0001) %MON land_grdW_min_T              =   0.0000000000000E+00
(PID.TID 0000.0001) %MON land_grdW_min_N              =   0.0000000000000E+00
(PID.TID 0000.0001) // =======================================================
(PID.TID 0000.0001) // End MONITOR Land statistics
(PID.TID 0000.0001) // =======================================================
(PID.TID 0000.0001) // =======================================================
(PID.TID 0000.0001) // Begin MONITOR Therm.SeaIce statistics
(PID.TID 0000.0001) // =======================================================
(PID.TID 0000.0001) %MON thSI_time_sec                =   3.1500000000000E+03
(PID.TID 0000.0001) %MON thSI_Ice_Area_G              =   1.2867687259153E+12
(PID.TID 0000.0001) %MON thSI_Ice_Area_S              =   6.7338003701638E+10
(PID.TID 0000.0001) %MON thSI_Ice_Area_N              =   1.2194307222137E+12
(PID.TID 0000.0001) %MON thSI_IceH_ave_G              =   1.0158262060840E-01
(PID.TID 0000.0001) %MON thSI_IceH_ave_S              =   9.9983717912968E-02
(PID.TID 0000.0001) %MON thSI_IceH_ave_N              =   1.0167091337785E-01
(PID.TID 0000.0001) %MON thSI_IceH_max_S              =   9.9983916321682E-02
(PID.TID 0000.0001) %MON thSI_IceH_max_N              =   1.0173318272519E-01
(PID.TID 0000.0001) %MON thSI_SnwH_ave_G              =   0.0000000000000E+00
(PID.TID 0000.0001) %MON thSI_SnwH_ave_S              =   0.0000000000000E+00
(PID.TID 0000.0001) %MON thSI_SnwH_ave_N              =   0.0000000000000E+00
(PID.TID 0000.0001) %MON thSI_SnwH_max_S              =   0.0000000000000E+00
(PID.TID 0000.0001) %MON thSI_SnwH_max_N              =   0.0000000000000E+00
(PID.TID 0000.0001) %MON thSI_Tsrf_ave_G              =  -5.7453018663911E+00
(PID.TID 0000.0001) %MON thSI_Tsrf_ave_S              =  -1.4678889727795E+00
(PID.TID 0000.0001) %MON thSI_Tsrf_ave_N              =  -5.9815042516652E+00
(PID.TID 0000.0001) %MON thSI_Tsrf_min_S              =  -1.5235499938212E+00
(PID.TID 0000.0001) %MON thSI_Tsrf_min_N              =  -6.1186205639208E+00
(PID.TID 0000.0001) %MON thSI_Tsrf_max_S              =  -1.4155153621860E+00
(PID.TID 0000.0001) %MON thSI_Tsrf_max_N              =  -5.2955220866350E+00
(PID.TID 0000.0001) %MON thSI_Tic1_ave_G              =  -3.6993063043726E+00
(PID.TID 0000.0001) %MON thSI_Tic1_ave_S              =  -1.6868372218784E+00
(PID.TID 0000.0001) %MON thSI_Tic1_ave_N              =  -3.8085923919872E+00
(PID.TID 0000.0001) %MON thSI_Tic1_min_S              =  -1.7037355498828E+00
(PID.TID 0000.0001) %MON thSI_Tic1_min_N              =  -3.8796293991957E+00
(PID.TID 0000.0001) %MON thSI_Tic1_max_S              =  -1.6712474342109E+00
(PID.TID 0000.0001) %MON thSI_Tic1_max_N              =  -3.4392969434812E+00
(PID.TID 0000.0001) %MON thSI_Tic2_ave_G              =  -2.3203209301144E+00
(PID.TID 0000.0001) %MON thSI_Tic2_ave_S              =  -1.8398101646799E+00
(PID.TID 0000.0001) %MON thSI_Tic2_ave_N              =  -2.3464148175027E+00
(PID.TID 0000.0001) %MON thSI_Tic2_min_S              =  -1.8438734245091E+00
(PID.TID 0000.0001) %MON thSI_Tic2_min_N              =  -2.3629398156075E+00
(PID.TID 0000.0001) %MON thSI_Tic2_max_S              =  -1.8360583555197E+00
(PID.TID 0000.0001) %MON thSI_Tic2_max_N              =  -2.2609654366480E+00
(PID.TID 0000.0001) %MON thSI_TotEnerg_G              =  -3.9747368889784E+19
(PID.TID 0000.0001) // =======================================================
(PID.TID 0000.0001) // End MONITOR Therm.SeaIce statistics
(PID.TID 0000.0001) // =======================================================
 cg2d: Sum(rhs),rhsMax =  -1.92812876775861E-10  2.13090420791896E+04
(PID.TID 0000.0001)      cg2d_init_res =   1.92446343613257E+04
(PID.TID 0000.0001)      cg2d_iters(min,last) =      -1      16
(PID.TID 0000.0001)      cg2d_last_res =   7.33069257618776E-11
(PID.TID 0000.0001) // =======================================================
(PID.TID 0000.0001) // Begin MONITOR dynamic field statistics
(PID.TID 0000.0001) // =======================================================
(PID.TID 0000.0001) %MON time_tsnumber                =                     8
(PID.TID 0000.0001) %MON time_secondsf                =   3.6000000000000E+03
(PID.TID 0000.0001) %MON dynstat_eta_max              =   3.8820736717551E+03
(PID.TID 0000.0001) %MON dynstat_eta_min              =  -2.3826702979315E+03
(PID.TID 0000.0001) %MON dynstat_eta_mean             =  -1.6693326444337E-15
(PID.TID 0000.0001) %MON dynstat_eta_sd               =   3.8707234712528E+02
(PID.TID 0000.0001) %MON dynstat_eta_del2             =   4.6148962820830E+00
(PID.TID 0000.0001) %MON dynstat_uvel_max             =   7.4329336445953E+00
(PID.TID 0000.0001) %MON dynstat_uvel_min             =  -8.3643253291809E+00
(PID.TID 0000.0001) %MON dynstat_uvel_mean            =  -6.2052513469675E-03
(PID.TID 0000.0001) %MON dynstat_uvel_sd              =   7.6551804304218E-01
(PID.TID 0000.0001) %MON dynstat_uvel_del2            =   1.7498063982481E-03
(PID.TID 0000.0001) %MON dynstat_vvel_max             =   8.5882366160879E+00
(PID.TID 0000.0001) %MON dynstat_vvel_min             =  -8.9843695692945E+00
(PID.TID 0000.0001) %MON dynstat_vvel_mean            =   1.0579050145662E-02
(PID.TID 0000.0001) %MON dynstat_vvel_sd              =   7.7999010178905E-01
(PID.TID 0000.0001) %MON dynstat_vvel_del2            =   1.9086203276860E-03
(PID.TID 0000.0001) %MON dynstat_wvel_max             =   2.8892050253883E-01
(PID.TID 0000.0001) %MON dynstat_wvel_min             =  -3.9392011246658E-01
(PID.TID 0000.0001) %MON dynstat_wvel_mean            =  -1.8659350818602E-03
(PID.TID 0000.0001) %MON dynstat_wvel_sd              =   2.1614708294066E-02
(PID.TID 0000.0001) %MON dynstat_wvel_del2            =   2.3767976378423E-04
(PID.TID 0000.0001) %MON dynstat_theta_max            =   4.3892090070342E+02
(PID.TID 0000.0001) %MON dynstat_theta_min            =   2.8761638516026E+02
(PID.TID 0000.0001) %MON dynstat_theta_mean           =   3.3171404317397E+02
(PID.TID 0000.0001) %MON dynstat_theta_sd             =   4.7421349661484E+01
(PID.TID 0000.0001) %MON dynstat_theta_del2           =   1.7148537027675E-03
(PID.TID 0000.0001) %MON dynstat_salt_max             =   2.6584808376977E+00
(PID.TID 0000.0001) %MON dynstat_salt_min             =  -1.4452344735594E-03
(PID.TID 0000.0001) %MON dynstat_salt_mean            =   3.1351244319984E-02
(PID.TID 0000.0001) %MON dynstat_salt_sd              =   1.3306585864838E-01
(PID.TID 0000.0001) %MON dynstat_salt_del2            =   5.3182278542326E-04
(PID.TID 0000.0001) %MON advcfl_uvel_max              =   1.2027916822673E-02
(PID.TID 0000.0001) %MON advcfl_vvel_max              =   1.2888104928259E-02
(PID.TID 0000.0001) %MON advcfl_wvel_max              =   7.1474583392902E-03
(PID.TID 0000.0001) %MON advcfl_W_hf_max              =   1.5203002850489E-02
(PID.TID 0000.0001) %MON am_eta_mean                  =  -1.2769643282684E+09
(PID.TID 0000.0001) %MON am_uZo_mean                  =   1.2585577247210E+09
(PID.TID 0000.0001) %MON am_tot_mean                  =  -1.8406603547471E+07
(PID.TID 0000.0001) %MON pe_b_mean                    =  -7.3469638769600E-01
(PID.TID 0000.0001) %MON ke_max                       =   3.8391559048158E+01
(PID.TID 0000.0001) %MON ke_mean                      =   5.9376012083446E-01
(PID.TID 0000.0001) %MON ke_vol                       =   4.9523908919847E+19
(PID.TID 0000.0001) %MON vort_r_min                   =  -3.1025718189220E-05
(PID.TID 0000.0001) %MON vort_r_max                   =   1.5059203219576E-05
(PID.TID 0000.0001) %MON vort_a_mean                  =   6.7242814765385E-08
(PID.TID 0000.0001) %MON vort_a_sd                    =   8.3947474164475E-05
(PID.TID 0000.0001) %MON vort_p_mean                  =   6.8939449207475E-08
(PID.TID 0000.0001) %MON vort_p_sd                    =   9.1816684368419E-05
(PID.TID 0000.0001) %MON surfExpan_theta_mean         =   1.8311105822270E-01
(PID.TID 0000.0001) %MON surfExpan_salt_mean          =  -5.3366661492174E-05
(PID.TID 0000.0001) %MON surfExpan_Heat_mean          =  -1.4998107863275E+01
(PID.TID 0000.0001) %MON En_Budget_T2PE_mean          =   2.8362159202994E+01
(PID.TID 0000.0001) // =======================================================
(PID.TID 0000.0001) // End MONITOR dynamic field statistics
(PID.TID 0000.0001) // =======================================================
(PID.TID 0000.0001) // =======================================================
(PID.TID 0000.0001) // Begin MONITOR Land statistics
(PID.TID 0000.0001) // =======================================================
(PID.TID 0000.0001) %MON land_time_sec                =   3.6000000000000E+03
(PID.TID 0000.0001) %MON land_SnwH_ave_G              =   1.5324043474307E-01
(PID.TID 0000.0001) %MON land_SnwH_ave_S              =   5.5905633959089E-01
(PID.TID 0000.0001) %MON land_SnwH_ave_T              =   0.0000000000000E+00
(PID.TID 0000.0001) %MON land_SnwH_ave_N              =   1.2392568348304E-01
(PID.TID 0000.0001) %MON land_SnwH_max_S              =   9.9999576619354E-01
(PID.TID 0000.0001) %MON land_SnwH_max_T              =   0.0000000000000E+00
(PID.TID 0000.0001) %MON land_SnwH_max_N              =   9.9999933195587E-01
(PID.TID 0000.0001) %MON land_Tsrf_ave_G              =  -6.6370319360471E+00
(PID.TID 0000.0001) %MON land_Tsrf_ave_S              =  -5.9476037273940E+00
(PID.TID 0000.0001) %MON land_Tsrf_ave_T              =   1.3944956473433E+01
(PID.TID 0000.0001) %MON land_Tsrf_ave_N              =  -2.0604724800109E+01
(PID.TID 0000.0001) %MON land_Tsrf_min_S              =  -3.3354753724537E+01
(PID.TID 0000.0001) %MON land_Tsrf_min_T              =  -6.1936230537168E+00
(PID.TID 0000.0001) %MON land_Tsrf_min_N              =  -4.9431897780098E+01
(PID.TID 0000.0001) %MON land_Tsrf_max_S              =   2.5124285727171E+01
(PID.TID 0000.0001) %MON land_Tsrf_max_T              =   2.7281470584337E+01
(PID.TID 0000.0001) %MON land_Tsrf_max_N              =   1.1880194058970E+01
(PID.TID 0000.0001) %MON land_Tgr1_ave_G              =  -5.3854493690762E+00
(PID.TID 0000.0001) %MON land_Tgr1_ave_S              =  -5.7855782448346E+00
(PID.TID 0000.0001) %MON land_Tgr1_ave_T              =   1.3944956473433E+01
(PID.TID 0000.0001) %MON land_Tgr1_ave_N              =  -1.8163926523922E+01
(PID.TID 0000.0001) %MON land_Tgr1_min_S              =  -3.9081279802217E+01
(PID.TID 0000.0001) %MON land_Tgr1_min_T              =  -6.1936230537168E+00
(PID.TID 0000.0001) %MON land_Tgr1_min_N              =  -5.4901059024026E+01
(PID.TID 0000.0001) %MON land_Tgr1_max_S              =   2.5124285727171E+01
(PID.TID 0000.0001) %MON land_Tgr1_max_T              =   2.7281470584337E+01
(PID.TID 0000.0001) %MON land_Tgr1_max_N              =   1.1880194058970E+01
(PID.TID 0000.0001) %MON land_Tgr2_ave_G              =   4.2065434109062E+00
(PID.TID 0000.0001) %MON land_Tgr2_ave_S              =  -1.8730062856300E+01
(PID.TID 0000.0001) %MON land_Tgr2_ave_T              =   2.2012335851585E+01
(PID.TID 0000.0001) %MON land_Tgr2_ave_N              =  -2.4314580344548E-01
(PID.TID 0000.0001) %MON land_Tgr2_min_S              =  -6.4758825368060E+01
(PID.TID 0000.0001) %MON land_Tgr2_min_T              =  -9.7048291912636E+00
(PID.TID 0000.0001) %MON land_Tgr2_min_N              =  -4.0195543620356E+01
(PID.TID 0000.0001) %MON land_Tgr2_max_S              =   2.3360626818256E+01
(PID.TID 0000.0001) %MON land_Tgr2_max_T              =   3.1358543378798E+01
(PID.TID 0000.0001) %MON land_Tgr2_max_N              =   2.9829763650856E+01
(PID.TID 0000.0001) %MON land_TotEnerg_G              =  -6.3028960497578E+21
(PID.TID 0000.0001) %MON land_TotEnerg_S              =  -4.9978376718347E+21
(PID.TID 0000.0001) %MON land_TotEnerg_T              =   7.3095366527848E+21
(PID.TID 0000.0001) %MON land_TotEnerg_N              =  -8.6145950307079E+21
(PID.TID 0000.0001) %MON land_grdW_ave_G              =   4.8692291798645E-01
(PID.TID 0000.0001) %MON land_grdW_ave_S              =   3.0867477131890E-01
(PID.TID 0000.0001) %MON land_grdW_ave_T              =   5.6459314516936E-01
(PID.TID 0000.0001) %MON land_grdW_ave_N              =   4.9287963721189E-01
(PID.TID 0000.0001) %MON land_grdW_min_S              =   2.6165440371373E-02
(PID.TID 0000.0001) %MON land_grdW_min_T              =   0.0000000000000E+00
(PID.TID 0000.0001) %MON land_grdW_min_N              =   0.0000000000000E+00
(PID.TID 0000.0001) // =======================================================
(PID.TID 0000.0001) // End MONITOR Land statistics
(PID.TID 0000.0001) // =======================================================
(PID.TID 0000.0001) // =======================================================
(PID.TID 0000.0001) // Begin MONITOR Therm.SeaIce statistics
(PID.TID 0000.0001) // =======================================================
(PID.TID 0000.0001) %MON thSI_time_sec                =   3.6000000000000E+03
(PID.TID 0000.0001) %MON thSI_Ice_Area_G              =   1.3216911356340E+12
(PID.TID 0000.0001) %MON thSI_Ice_Area_S              =   6.7332611755241E+10
(PID.TID 0000.0001) %MON thSI_Ice_Area_N              =   1.2543585238788E+12
(PID.TID 0000.0001) %MON thSI_IceH_ave_G              =   1.0189528640067E-01
(PID.TID 0000.0001) %MON thSI_IceH_ave_S              =   9.9980882555618E-02
(PID.TID 0000.0001) %MON thSI_IceH_ave_N              =   1.0199804953289E-01
(PID.TID 0000.0001) %MON thSI_IceH_max_S              =   9.9981181450030E-02
(PID.TID 0000.0001) %MON thSI_IceH_max_N              =   1.0207136174346E-01
(PID.TID 0000.0001) %MON thSI_SnwH_ave_G              =   0.0000000000000E+00
(PID.TID 0000.0001) %MON thSI_SnwH_ave_S              =   0.0000000000000E+00
(PID.TID 0000.0001) %MON thSI_SnwH_ave_N              =   0.0000000000000E+00
(PID.TID 0000.0001) %MON thSI_SnwH_max_S              =   0.0000000000000E+00
(PID.TID 0000.0001) %MON thSI_SnwH_max_N              =   0.0000000000000E+00
(PID.TID 0000.0001) %MON thSI_Tsrf_ave_G              =  -6.0186054774770E+00
(PID.TID 0000.0001) %MON thSI_Tsrf_ave_S              =  -1.4283976591867E+00
(PID.TID 0000.0001) %MON thSI_Tsrf_ave_N              =  -6.2650028790342E+00
(PID.TID 0000.0001) %MON thSI_Tsrf_min_S              =  -1.4859060044962E+00
(PID.TID 0000.0001) %MON thSI_Tsrf_min_N              =  -6.4126574293577E+00
(PID.TID 0000.0001) %MON thSI_Tsrf_max_S              =  -1.3733129855333E+00
(PID.TID 0000.0001) %MON thSI_Tsrf_max_N              =  -5.5205960804730E+00
(PID.TID 0000.0001) %MON thSI_Tic1_ave_G              =  -4.0007669353477E+00
(PID.TID 0000.0001) %MON thSI_Tic1_ave_S              =  -1.6569030426090E+00
(PID.TID 0000.0001) %MON thSI_Tic1_ave_N              =  -4.1240948144869E+00
(PID.TID 0000.0001) %MON thSI_Tic1_min_S              =  -1.6763524310505E+00
(PID.TID 0000.0001) %MON thSI_Tic1_min_N              =  -4.2067206059834E+00
(PID.TID 0000.0001) %MON thSI_Tic1_max_S              =  -1.6388177982746E+00
(PID.TID 0000.0001) %MON thSI_Tic1_max_N              =  -3.6935080609057E+00
(PID.TID 0000.0001) %MON thSI_Tic2_ave_G              =  -2.4171676293091E+00
(PID.TID 0000.0001) %MON thSI_Tic2_ave_S              =  -1.8297763363094E+00
(PID.TID 0000.0001) %MON thSI_Tic2_ave_N              =  -2.4480745956286E+00
(PID.TID 0000.0001) %MON thSI_Tic2_min_S              =  -1.8347272722978E+00
(PID.TID 0000.0001) %MON thSI_Tic2_min_N              =  -2.4683740991645E+00
(PID.TID 0000.0001) %MON thSI_Tic2_max_S              =  -1.8251909681655E+00
(PID.TID 0000.0001) %MON thSI_Tic2_max_N              =  -2.3430815165062E+00
(PID.TID 0000.0001) %MON thSI_TotEnerg_G              =  -4.1023177474363E+19
(PID.TID 0000.0001) // =======================================================
(PID.TID 0000.0001) // End MONITOR Therm.SeaIce statistics
(PID.TID 0000.0001) // =======================================================
 cg2d: Sum(rhs),rhsMax =   1.54159351950511E-10  2.07128667576143E+04
(PID.TID 0000.0001)      cg2d_init_res =   1.85110725497184E+04
(PID.TID 0000.0001)      cg2d_iters(min,last) =      -1      16
(PID.TID 0000.0001)      cg2d_last_res =   7.94106876024805E-11
(PID.TID 0000.0001) // =======================================================
(PID.TID 0000.0001) // Begin MONITOR dynamic field statistics
(PID.TID 0000.0001) // =======================================================
(PID.TID 0000.0001) %MON time_tsnumber                =                     9
(PID.TID 0000.0001) %MON time_secondsf                =   4.0500000000000E+03
(PID.TID 0000.0001) %MON dynstat_eta_max              =   3.8104377130057E+03
(PID.TID 0000.0001) %MON dynstat_eta_min              =  -2.1889266614237E+03
(PID.TID 0000.0001) %MON dynstat_eta_mean             =  -3.1378433166046E-15
(PID.TID 0000.0001) %MON dynstat_eta_sd               =   4.1276995085611E+02
(PID.TID 0000.0001) %MON dynstat_eta_del2             =   4.5235373138952E+00
(PID.TID 0000.0001) %MON dynstat_uvel_max             =   7.0763695655305E+00
(PID.TID 0000.0001) %MON dynstat_uvel_min             =  -8.3301151544208E+00
(PID.TID 0000.0001) %MON dynstat_uvel_mean            =  -6.8157517398039E-03
(PID.TID 0000.0001) %MON dynstat_uvel_sd              =   7.7452397739155E-01
(PID.TID 0000.0001) %MON dynstat_uvel_del2            =   1.6794115279776E-03
(PID.TID 0000.0001) %MON dynstat_vvel_max             =   8.7616390535921E+00
(PID.TID 0000.0001) %MON dynstat_vvel_min             =  -9.4151901916260E+00
(PID.TID 0000.0001) %MON dynstat_vvel_mean            =   1.2203165541540E-02
(PID.TID 0000.0001) %MON dynstat_vvel_sd              =   8.0893465116412E-01
(PID.TID 0000.0001) %MON dynstat_vvel_del2            =   1.8642991556998E-03
(PID.TID 0000.0001) %MON dynstat_wvel_max             =   2.8367261312264E-01
(PID.TID 0000.0001) %MON dynstat_wvel_min             =  -3.6669545965369E-01
(PID.TID 0000.0001) %MON dynstat_wvel_mean            =  -1.7072660330692E-03
(PID.TID 0000.0001) %MON dynstat_wvel_sd              =   2.1338873444420E-02
(PID.TID 0000.0001) %MON dynstat_wvel_del2            =   2.1683791354957E-04
(PID.TID 0000.0001) %MON dynstat_theta_max            =   4.3927538477785E+02
(PID.TID 0000.0001) %MON dynstat_theta_min            =   2.8737097303392E+02
(PID.TID 0000.0001) %MON dynstat_theta_mean           =   3.3171294207995E+02
(PID.TID 0000.0001) %MON dynstat_theta_sd             =   4.7422772560964E+01
(PID.TID 0000.0001) %MON dynstat_theta_del2           =   1.9254865332123E-03
(PID.TID 0000.0001) %MON dynstat_salt_max             =   2.8574562039926E+00
(PID.TID 0000.0001) %MON dynstat_salt_min             =  -1.7382764271253E-03
(PID.TID 0000.0001) %MON dynstat_salt_mean            =   3.5096083746192E-02
(PID.TID 0000.0001) %MON dynstat_salt_sd              =   1.4852751749900E-01
(PID.TID 0000.0001) %MON dynstat_salt_del2            =   5.7104361650803E-04
(PID.TID 0000.0001) %MON advcfl_uvel_max              =   1.1978722521841E-02
(PID.TID 0000.0001) %MON advcfl_vvel_max              =   1.3506118395207E-02
(PID.TID 0000.0001) %MON advcfl_wvel_max              =   7.6653469289901E-03
(PID.TID 0000.0001) %MON advcfl_W_hf_max              =   1.5032449916413E-02
(PID.TID 0000.0001) %MON am_eta_mean                  =  -1.6366192820399E+09
(PID.TID 0000.0001) %MON am_uZo_mean                  =   1.6173267489680E+09
(PID.TID 0000.0001) %MON am_tot_mean                  =  -1.9292533071860E+07
(PID.TID 0000.0001) %MON pe_b_mean                    =  -7.6811176079368E-01
(PID.TID 0000.0001) %MON ke_max                       =   3.6406021649314E+01
(PID.TID 0000.0001) %MON ke_mean                      =   6.2353684135215E-01
(PID.TID 0000.0001) %MON ke_vol                       =   4.9523908919847E+19
(PID.TID 0000.0001) %MON vort_r_min                   =  -3.2019277345443E-05
(PID.TID 0000.0001) %MON vort_r_max                   =   1.5892943953872E-05
(PID.TID 0000.0001) %MON vort_a_mean                  =   6.7242814765296E-08
(PID.TID 0000.0001) %MON vort_a_sd                    =   8.3949815841008E-05
(PID.TID 0000.0001) %MON vort_p_mean                  =   6.8939449694835E-08
(PID.TID 0000.0001) %MON vort_p_sd                    =   9.1845689300016E-05
(PID.TID 0000.0001) %MON surfExpan_theta_mean         =   1.6777576218026E-01
(PID.TID 0000.0001) %MON surfExpan_salt_mean          =  -7.2604276826950E-05
(PID.TID 0000.0001) %MON surfExpan_Heat_mean          =  -1.3752118307274E+01
(PID.TID 0000.0001) %MON En_Budget_T2PE_mean          =   2.5956492201234E+01
(PID.TID 0000.0001) // =======================================================
(PID.TID 0000.0001) // End MONITOR dynamic field statistics
(PID.TID 0000.0001) // =======================================================
(PID.TID 0000.0001) // =======================================================
(PID.TID 0000.0001) // Begin MONITOR Land statistics
(PID.TID 0000.0001) // =======================================================
(PID.TID 0000.0001) %MON land_time_sec                =   4.0500000000000E+03
(PID.TID 0000.0001) %MON land_SnwH_ave_G              =   1.5323936497849E-01
(PID.TID 0000.0001) %MON land_SnwH_ave_S              =   5.5905535933971E-01
(PID.TID 0000.0001) %MON land_SnwH_ave_T              =   0.0000000000000E+00
(PID.TID 0000.0001) %MON land_SnwH_ave_N              =   1.2392387032354E-01
(PID.TID 0000.0001) %MON land_SnwH_max_S              =   9.9999514665672E-01
(PID.TID 0000.0001) %MON land_SnwH_max_T              =   0.0000000000000E+00
(PID.TID 0000.0001) %MON land_SnwH_max_N              =   9.9999924591641E-01
(PID.TID 0000.0001) %MON land_Tsrf_ave_G              =  -6.8215657608323E+00
(PID.TID 0000.0001) %MON land_Tsrf_ave_S              =  -6.0067894306803E+00
(PID.TID 0000.0001) %MON land_Tsrf_ave_T              =   1.3506387751118E+01
(PID.TID 0000.0001) %MON land_Tsrf_ave_N              =  -2.0660283758219E+01
(PID.TID 0000.0001) %MON land_Tsrf_min_S              =  -3.2985004406144E+01
(PID.TID 0000.0001) %MON land_Tsrf_min_T              =  -5.9997948218251E+00
(PID.TID 0000.0001) %MON land_Tsrf_min_N              =  -4.9592907863674E+01
(PID.TID 0000.0001) %MON land_Tsrf_max_S              =   2.4530017473739E+01
(PID.TID 0000.0001) %MON land_Tsrf_max_T              =   2.6497632926949E+01
(PID.TID 0000.0001) %MON land_Tsrf_max_N              =   1.1591485914018E+01
(PID.TID 0000.0001) %MON land_Tgr1_ave_G              =  -5.5904301567072E+00
(PID.TID 0000.0001) %MON land_Tgr1_ave_S              =  -5.9584698200781E+00
(PID.TID 0000.0001) %MON land_Tgr1_ave_T              =   1.3506387751118E+01
(PID.TID 0000.0001) %MON land_Tgr1_ave_N              =  -1.8223333703450E+01
(PID.TID 0000.0001) %MON land_Tgr1_min_S              =  -3.9091799640386E+01
(PID.TID 0000.0001) %MON land_Tgr1_min_T              =  -5.9997948218251E+00
(PID.TID 0000.0001) %MON land_Tgr1_min_N              =  -5.4885863442400E+01
(PID.TID 0000.0001) %MON land_Tgr1_max_S              =   2.4530017473739E+01
(PID.TID 0000.0001) %MON land_Tgr1_max_T              =   2.6497632926949E+01
(PID.TID 0000.0001) %MON land_Tgr1_max_N              =   1.1591485914018E+01
(PID.TID 0000.0001) %MON land_Tgr2_ave_G              =   4.2063939077881E+00
(PID.TID 0000.0001) %MON land_Tgr2_ave_S              =  -1.8729849898249E+01
(PID.TID 0000.0001) %MON land_Tgr2_ave_T              =   2.2012195658860E+01
(PID.TID 0000.0001) %MON land_Tgr2_ave_N              =  -2.4341910396447E-01
(PID.TID 0000.0001) %MON land_Tgr2_min_S              =  -6.4758392434899E+01
(PID.TID 0000.0001) %MON land_Tgr2_min_T              =  -9.7047823763442E+00
(PID.TID 0000.0001) %MON land_Tgr2_min_N              =  -4.0195782925551E+01
(PID.TID 0000.0001) %MON land_Tgr2_max_S              =   2.3360639420214E+01
(PID.TID 0000.0001) %MON land_Tgr2_max_T              =   3.1358191782573E+01
(PID.TID 0000.0001) %MON land_Tgr2_max_N              =   2.9829345022694E+01
(PID.TID 0000.0001) %MON land_TotEnerg_G              =  -6.3081719993699E+21
(PID.TID 0000.0001) %MON land_TotEnerg_S              =  -4.9984133375683E+21
(PID.TID 0000.0001) %MON land_TotEnerg_T              =   7.3057167143187E+21
(PID.TID 0000.0001) %MON land_TotEnerg_N              =  -8.6154753761203E+21
(PID.TID 0000.0001) %MON land_grdW_ave_G              =   4.8691008591043E-01
(PID.TID 0000.0001) %MON land_grdW_ave_S              =   3.0866429705593E-01
(PID.TID 0000.0001) %MON land_grdW_ave_T              =   5.6456046895960E-01
(PID.TID 0000.0001) %MON land_grdW_ave_N              =   4.9287929160458E-01
(PID.TID 0000.0001) %MON land_grdW_min_S              =   2.6225789251074E-02
(PID.TID 0000.0001) %MON land_grdW_min_T              =   0.0000000000000E+00
(PID.TID 0000.0001) %MON land_grdW_min_N              =   0.0000000000000E+00
(PID.TID 0000.0001) // =======================================================
(PID.TID 0000.0001) // End MONITOR Land statistics
(PID.TID 0000.0001) // =======================================================
(PID.TID 0000.0001) // =======================================================
(PID.TID 0000.0001) // Begin MONITOR Therm.SeaIce statistics
(PID.TID 0000.0001) // =======================================================
(PID.TID 0000.0001) %MON thSI_time_sec                =   4.0500000000000E+03
(PID.TID 0000.0001) %MON thSI_Ice_Area_G              =   1.3560508878343E+12
(PID.TID 0000.0001) %MON thSI_Ice_Area_S              =   6.7326343948633E+10
(PID.TID 0000.0001) %MON thSI_Ice_Area_N              =   1.2887245438857E+12
(PID.TID 0000.0001) %MON thSI_IceH_ave_G              =   1.0221734158027E-01
(PID.TID 0000.0001) %MON thSI_IceH_ave_S              =   9.9978003447588E-02
(PID.TID 0000.0001) %MON thSI_IceH_ave_N              =   1.0233433046673E-01
(PID.TID 0000.0001) %MON thSI_IceH_max_S              =   9.9978417075547E-02
(PID.TID 0000.0001) %MON thSI_IceH_max_N              =   1.0241825005614E-01
(PID.TID 0000.0001) %MON thSI_SnwH_ave_G              =   0.0000000000000E+00
(PID.TID 0000.0001) %MON thSI_SnwH_ave_S              =   0.0000000000000E+00
(PID.TID 0000.0001) %MON thSI_SnwH_ave_N              =   0.0000000000000E+00
(PID.TID 0000.0001) %MON thSI_SnwH_max_S              =   0.0000000000000E+00
(PID.TID 0000.0001) %MON thSI_SnwH_max_N              =   0.0000000000000E+00
(PID.TID 0000.0001) %MON thSI_Tsrf_ave_G              =  -6.2756885336907E+00
(PID.TID 0000.0001) %MON thSI_Tsrf_ave_S              =  -1.3893242510097E+00
(PID.TID 0000.0001) %MON thSI_Tsrf_ave_N              =  -6.5309649959222E+00
(PID.TID 0000.0001) %MON thSI_Tsrf_min_S              =  -1.4458651266178E+00
(PID.TID 0000.0001) %MON thSI_Tsrf_min_N              =  -6.6901366541898E+00
(PID.TID 0000.0001) %MON thSI_Tsrf_max_S              =  -1.3336654932777E+00
(PID.TID 0000.0001) %MON thSI_Tsrf_max_N              =  -5.7334088001686E+00
(PID.TID 0000.0001) %MON thSI_Tic1_ave_G              =  -4.2848139996140E+00
(PID.TID 0000.0001) %MON thSI_Tic1_ave_S              =  -1.6277425460485E+00
(PID.TID 0000.0001) %MON thSI_Tic1_ave_N              =  -4.4204301063133E+00
(PID.TID 0000.0001) %MON thSI_Tic1_min_S              =  -1.6492627777104E+00
(PID.TID 0000.0001) %MON thSI_Tic1_min_N              =  -4.5132919863262E+00
(PID.TID 0000.0001) %MON thSI_Tic1_max_S              =  -1.6075132621263E+00
(PID.TID 0000.0001) %MON thSI_Tic1_max_N              =  -3.9341566854186E+00
(PID.TID 0000.0001) %MON thSI_Tic2_ave_G              =  -2.5124594934367E+00
(PID.TID 0000.0001) %MON thSI_Tic2_ave_S              =  -1.8198571245075E+00
(PID.TID 0000.0001) %MON thSI_Tic2_ave_N              =  -2.5478097045268E+00
(PID.TID 0000.0001) %MON thSI_Tic2_min_S              =  -1.8256234131197E+00
(PID.TID 0000.0001) %MON thSI_Tic2_min_N              =  -2.5716966985421E+00
(PID.TID 0000.0001) %MON thSI_Tic2_max_S              =  -1.8144817492604E+00
(PID.TID 0000.0001) %MON thSI_Tic2_max_N              =  -2.4239877147881E+00
(PID.TID 0000.0001) %MON thSI_TotEnerg_G              =  -4.2289666227452E+19
(PID.TID 0000.0001) // =======================================================
(PID.TID 0000.0001) // End MONITOR Therm.SeaIce statistics
(PID.TID 0000.0001) // =======================================================
 Compute Stats, Diag. #     23  ETAN      vol(   0 ): 5.099E+14  Parms: SM      M1      
 Compute Stats, Diag. #     29  UVEL      vol(   0 ): 4.923E+19  Parms: UUR     MR      
 Compute Stats, Diag. #     30  VVEL      vol(   0 ): 4.923E+19  Parms: VVR     MR      
 Compute Stats, Diag. #     31  WVEL      vol(   0 ): 4.680E+19  Parms: WM      LR      
 Compute Stats, Diag. #     26  THETA     vol(   0 ): 4.952E+19  Parms: SMR     MR      
 Compute Stats, Diag. #    213  LdSnowH   vol(   1 ): 2.378E+13  Parms: SM P    Lg      
 Compute Stats, Diag. #    213  LdSnowH   vol(   2 ): 4.894E+13  Parms: SM P    Lg      
 Compute Stats, Diag. #    213  LdSnowH   vol(   3 ): 7.330E+13  Parms: SM P    Lg      
 Compute Stats, Diag. #    209  GrdSurfT  vol(   1 ): 2.378E+13  Parms: SM      Lg      
 Compute Stats, Diag. #    209  GrdSurfT  vol(   2 ): 4.894E+13  Parms: SM      Lg      
 Compute Stats, Diag. #    209  GrdSurfT  vol(   3 ): 7.330E+13  Parms: SM      Lg      
 Compute Stats, Diag. #    210  GrdTemp   vol(   1 ): 9.748E+13  Parms: SM      MG      
 Compute Stats, Diag. #    210  GrdTemp   vol(   2 ): 2.007E+14  Parms: SM      MG      
 Compute Stats, Diag. #    210  GrdTemp   vol(   3 ): 3.005E+14  Parms: SM      MG      
 Compute Stats, Diag. #    212  GrdWater  vol(   1 ): 9.748E+13  Parms: SM P    MG      
 Compute Stats, Diag. #    212  GrdWater  vol(   2 ): 2.007E+14  Parms: SM P    MG      
 Compute Stats, Diag. #    212  GrdWater  vol(   3 ): 3.005E+14  Parms: SM P    MG      
 Compute Stats, Diag. #    176  SI_Fract  vol(   0 ): 5.099E+14  Parms: SM P    M1      
 Compute Stats, Diag. #    176  SI_Fract  vol(   1 ): 1.526E+14  Parms: SM P    M1      
 Compute Stats, Diag. #    176  SI_Fract  vol(   3 ): 1.526E+14  Parms: SM P    M1      
 Compute Stats, Diag. #    177  SI_Thick  vol(   0 ): 1.322E+12  Parms: SM PC   M1      
    use Counter Mate  #    176  SI_Fract  vol(   0 ): 5.099E+14 integral 1.322E+12
 Compute Stats, Diag. #    177  SI_Thick  vol(   1 ): 6.733E+10  Parms: SM PC   M1      
    use Counter Mate  #    176  SI_Fract  vol(   1 ): 1.526E+14 integral 6.733E+10
 Compute Stats, Diag. #    177  SI_Thick  vol(   3 ): 1.254E+12  Parms: SM PC   M1      
    use Counter Mate  #    176  SI_Fract  vol(   3 ): 1.526E+14 integral 1.254E+12
 Compute Stats, Diag. #    178  SI_SnowH  vol(   0 ): 1.322E+12  Parms: SM PC   M1      
    use Counter Mate  #    176  SI_Fract  vol(   0 ): 5.099E+14 integral 1.322E+12
 Compute Stats, Diag. #    178  SI_SnowH  vol(   1 ): 6.733E+10  Parms: SM PC   M1      
    use Counter Mate  #    176  SI_Fract  vol(   1 ): 1.526E+14 integral 6.733E+10
 Compute Stats, Diag. #    178  SI_SnowH  vol(   3 ): 1.254E+12  Parms: SM PC   M1      
    use Counter Mate  #    176  SI_Fract  vol(   3 ): 1.526E+14 integral 1.254E+12
 Compute Stats, Diag. #    179  SI_Tsrf   vol(   0 ): 1.322E+12  Parms: SM  C   M1      
    use Counter Mate  #    176  SI_Fract  vol(   0 ): 5.099E+14 integral 1.322E+12
 Compute Stats, Diag. #    179  SI_Tsrf   vol(   1 ): 6.733E+10  Parms: SM  C   M1      
    use Counter Mate  #    176  SI_Fract  vol(   1 ): 1.526E+14 integral 6.733E+10
 Compute Stats, Diag. #    179  SI_Tsrf   vol(   3 ): 1.254E+12  Parms: SM  C   M1      
    use Counter Mate  #    176  SI_Fract  vol(   3 ): 1.526E+14 integral 1.254E+12
 Compute Stats, Diag. #    180  SI_Tice1  vol(   0 ): 1.322E+12  Parms: SM  C   M1      
    use Counter Mate  #    176  SI_Fract  vol(   0 ): 5.099E+14 integral 1.322E+12
 Compute Stats, Diag. #    180  SI_Tice1  vol(   1 ): 6.733E+10  Parms: SM  C   M1      
    use Counter Mate  #    176  SI_Fract  vol(   1 ): 1.526E+14 integral 6.733E+10
 Compute Stats, Diag. #    180  SI_Tice1  vol(   3 ): 1.254E+12  Parms: SM  C   M1      
    use Counter Mate  #    176  SI_Fract  vol(   3 ): 1.526E+14 integral 1.254E+12
 Compute Stats, Diag. #    181  SI_Tice2  vol(   0 ): 1.322E+12  Parms: SM  C   M1      
    use Counter Mate  #    176  SI_Fract  vol(   0 ): 5.099E+14 integral 1.322E+12
 Compute Stats, Diag. #    181  SI_Tice2  vol(   1 ): 6.733E+10  Parms: SM  C   M1      
    use Counter Mate  #    176  SI_Fract  vol(   1 ): 1.526E+14 integral 6.733E+10
 Compute Stats, Diag. #    181  SI_Tice2  vol(   3 ): 1.254E+12  Parms: SM  C   M1      
    use Counter Mate  #    176  SI_Fract  vol(   3 ): 1.526E+14 integral 1.254E+12
 Compute Stats, Diag. #    186  SIsnwPrc  vol(   0 ): 1.322E+12  Parms: SM  C   M1      
    use Counter Mate  #    176  SI_Fract  vol(   0 ): 5.099E+14 integral 1.322E+12
 Compute Stats, Diag. #    186  SIsnwPrc  vol(   1 ): 6.733E+10  Parms: SM  C   M1      
    use Counter Mate  #    176  SI_Fract  vol(   1 ): 1.526E+14 integral 6.733E+10
 Compute Stats, Diag. #    186  SIsnwPrc  vol(   3 ): 1.254E+12  Parms: SM  C   M1      
    use Counter Mate  #    176  SI_Fract  vol(   3 ): 1.526E+14 integral 1.254E+12
 Compute Stats, Diag. #    185  SIalbedo  vol(   0 ): 1.322E+12  Parms: SM PC   M1      
    use Counter Mate  #    176  SI_Fract  vol(   0 ): 5.099E+14 integral 1.322E+12
 Compute Stats, Diag. #    185  SIalbedo  vol(   1 ): 6.733E+10  Parms: SM PC   M1      
    use Counter Mate  #    176  SI_Fract  vol(   1 ): 1.526E+14 integral 6.733E+10
 Compute Stats, Diag. #    185  SIalbedo  vol(   3 ): 1.254E+12  Parms: SM PC   M1      
    use Counter Mate  #    176  SI_Fract  vol(   3 ): 1.526E+14 integral 1.254E+12
 Compute Stats, Diag. #    184  SIsnwAge  vol(   0 ): 5.099E+14  Parms: SM P    M1      
 Compute Stats, Diag. #    184  SIsnwAge  vol(   1 ): 1.526E+14  Parms: SM P    M1      
 Compute Stats, Diag. #    184  SIsnwAge  vol(   3 ): 1.526E+14  Parms: SM P    M1      
 Compute Stats, Diag. #    189  SIflx2oc  vol(   0 ): 5.099E+14  Parms: SM      M1      
 Compute Stats, Diag. #    189  SIflx2oc  vol(   1 ): 1.526E+14  Parms: SM      M1      
 Compute Stats, Diag. #    189  SIflx2oc  vol(   3 ): 1.526E+14  Parms: SM      M1      
 Compute Stats, Diag. #    190  SIfrw2oc  vol(   0 ): 5.099E+14  Parms: SM      M1      
 Compute Stats, Diag. #    190  SIfrw2oc  vol(   1 ): 1.526E+14  Parms: SM      M1      
 Compute Stats, Diag. #    190  SIfrw2oc  vol(   3 ): 1.526E+14  Parms: SM      M1      
 Compute Stats, Diag. #    191  SIsaltFx  vol(   0 ): 5.099E+14  Parms: SM      M1      
 Compute Stats, Diag. #    191  SIsaltFx  vol(   1 ): 1.526E+14  Parms: SM      M1      
 Compute Stats, Diag. #    191  SIsaltFx  vol(   3 ): 1.526E+14  Parms: SM      M1      
 cg2d: Sum(rhs),rhsMax =   7.36690708436072E-11  1.98688696211599E+04
(PID.TID 0000.0001)      cg2d_init_res =   1.76962493094844E+04
(PID.TID 0000.0001)      cg2d_iters(min,last) =      -1      16
(PID.TID 0000.0001)      cg2d_last_res =   8.36164753636171E-11
(PID.TID 0000.0001) // =======================================================
(PID.TID 0000.0001) // Begin MONITOR dynamic field statistics
(PID.TID 0000.0001) // =======================================================
(PID.TID 0000.0001) %MON time_tsnumber                =                    10
(PID.TID 0000.0001) %MON time_secondsf                =   4.5000000000000E+03
(PID.TID 0000.0001) %MON dynstat_eta_max              =   3.6844555187433E+03
(PID.TID 0000.0001) %MON dynstat_eta_min              =  -1.9231310054068E+03
(PID.TID 0000.0001) %MON dynstat_eta_mean             =  -1.1296235939777E-15
(PID.TID 0000.0001) %MON dynstat_eta_sd               =   4.3633695218481E+02
(PID.TID 0000.0001) %MON dynstat_eta_del2             =   4.5146180661659E+00
(PID.TID 0000.0001) %MON dynstat_uvel_max             =   7.0239420100841E+00
(PID.TID 0000.0001) %MON dynstat_uvel_min             =  -8.1876833844498E+00
(PID.TID 0000.0001) %MON dynstat_uvel_mean            =  -7.4053844105373E-03
(PID.TID 0000.0001) %MON dynstat_uvel_sd              =   7.7789545416553E-01
(PID.TID 0000.0001) %MON dynstat_uvel_del2            =   1.5967431778160E-03
(PID.TID 0000.0001) %MON dynstat_vvel_max             =   8.8874661083448E+00
(PID.TID 0000.0001) %MON dynstat_vvel_min             =  -9.7487675015631E+00
(PID.TID 0000.0001) %MON dynstat_vvel_mean            =   1.3851085076604E-02
(PID.TID 0000.0001) %MON dynstat_vvel_sd              =   8.2685126939510E-01
(PID.TID 0000.0001) %MON dynstat_vvel_del2            =   1.7788629892267E-03
(PID.TID 0000.0001) %MON dynstat_wvel_max             =   2.5346125584028E-01
(PID.TID 0000.0001) %MON dynstat_wvel_min             =  -3.6310548387990E-01
(PID.TID 0000.0001) %MON dynstat_wvel_mean            =  -1.5561168463536E-03
(PID.TID 0000.0001) %MON dynstat_wvel_sd              =   2.0678289063795E-02
(PID.TID 0000.0001) %MON dynstat_wvel_del2            =   1.9359507175951E-04
(PID.TID 0000.0001) %MON dynstat_theta_max            =   4.3955251722139E+02
(PID.TID 0000.0001) %MON dynstat_theta_min            =   2.8712560508903E+02
(PID.TID 0000.0001) %MON dynstat_theta_mean           =   3.3171173377935E+02
(PID.TID 0000.0001) %MON dynstat_theta_sd             =   4.7424286316134E+01
(PID.TID 0000.0001) %MON dynstat_theta_del2           =   2.0876393314417E-03
(PID.TID 0000.0001) %MON dynstat_salt_max             =   3.0382078963951E+00
(PID.TID 0000.0001) %MON dynstat_salt_min             =  -1.8666750965184E-03
(PID.TID 0000.0001) %MON dynstat_salt_mean            =   3.8812013966574E-02
(PID.TID 0000.0001) %MON dynstat_salt_sd              =   1.6382294682490E-01
(PID.TID 0000.0001) %MON dynstat_salt_del2            =   6.0751800728818E-04
(PID.TID 0000.0001) %MON advcfl_uvel_max              =   1.1773905347150E-02
(PID.TID 0000.0001) %MON advcfl_vvel_max              =   1.3984636040658E-02
(PID.TID 0000.0001) %MON advcfl_wvel_max              =   8.2779103587091E-03
(PID.TID 0000.0001) %MON advcfl_W_hf_max              =   1.4578693104793E-02
(PID.TID 0000.0001) %MON am_eta_mean                  =  -2.0362901633392E+09
(PID.TID 0000.0001) %MON am_uZo_mean                  =   2.0152113032174E+09
(PID.TID 0000.0001) %MON am_tot_mean                  =  -2.1078860121733E+07
(PID.TID 0000.0001) %MON pe_b_mean                    =  -7.8969248567677E-01
(PID.TID 0000.0001) %MON ke_max                       =   3.6255516280421E+01
(PID.TID 0000.0001) %MON ke_mean                      =   6.4073137810352E-01
(PID.TID 0000.0001) %MON ke_vol                       =   4.9523908919847E+19
(PID.TID 0000.0001) %MON vort_r_min                   =  -3.2496638780138E-05
(PID.TID 0000.0001) %MON vort_r_max                   =   1.5986657483622E-05
(PID.TID 0000.0001) %MON vort_a_mean                  =   6.7242814765296E-08
(PID.TID 0000.0001) %MON vort_a_sd                    =   8.3952275063175E-05
(PID.TID 0000.0001) %MON vort_p_mean                  =   6.8939450461848E-08
(PID.TID 0000.0001) %MON vort_p_sd                    =   9.1873180058202E-05
(PID.TID 0000.0001) %MON surfExpan_theta_mean         =   1.5277694874872E-01
(PID.TID 0000.0001) %MON surfExpan_salt_mean          =  -9.4509637371639E-05
(PID.TID 0000.0001) %MON surfExpan_Heat_mean          =  -1.2564612593953E+01
(PID.TID 0000.0001) %MON En_Budget_T2PE_mean          =   2.3648834080473E+01
(PID.TID 0000.0001) // =======================================================
(PID.TID 0000.0001) // End MONITOR dynamic field statistics
(PID.TID 0000.0001) // =======================================================
(PID.TID 0000.0001) // =======================================================
(PID.TID 0000.0001) // Begin MONITOR Land statistics
(PID.TID 0000.0001) // =======================================================
(PID.TID 0000.0001) %MON land_time_sec                =   4.5000000000000E+03
(PID.TID 0000.0001) %MON land_SnwH_ave_G              =   1.5323831192637E-01
(PID.TID 0000.0001) %MON land_SnwH_ave_S              =   5.5905436472815E-01
(PID.TID 0000.0001) %MON land_SnwH_ave_T              =   0.0000000000000E+00
(PID.TID 0000.0001) %MON land_SnwH_ave_N              =   1.2392209511643E-01
(PID.TID 0000.0001) %MON land_SnwH_max_S              =   9.9999450443210E-01
(PID.TID 0000.0001) %MON land_SnwH_max_T              =   0.0000000000000E+00
(PID.TID 0000.0001) %MON land_SnwH_max_N              =   9.9999916158666E-01
(PID.TID 0000.0001) %MON land_Tsrf_ave_G              =  -6.9903896994729E+00
(PID.TID 0000.0001) %MON land_Tsrf_ave_S              =  -6.0759470268856E+00
(PID.TID 0000.0001) %MON land_Tsrf_ave_T              =   1.3112865909668E+01
(PID.TID 0000.0001) %MON land_Tsrf_ave_N              =  -2.0711392199825E+01
(PID.TID 0000.0001) %MON land_Tsrf_min_S              =  -3.2642370895215E+01
(PID.TID 0000.0001) %MON land_Tsrf_min_T              =  -5.8126857573351E+00
(PID.TID 0000.0001) %MON land_Tsrf_min_N              =  -4.9714387243170E+01
(PID.TID 0000.0001) %MON land_Tsrf_max_S              =   2.3998300648067E+01
(PID.TID 0000.0001) %MON land_Tsrf_max_T              =   2.5788481891360E+01
(PID.TID 0000.0001) %MON land_Tsrf_max_N              =   1.1320016085830E+01
(PID.TID 0000.0001) %MON land_Tgr1_ave_G              =  -5.7756538880695E+00
(PID.TID 0000.0001) %MON land_Tgr1_ave_S              =  -6.1128394780496E+00
(PID.TID 0000.0001) %MON land_Tgr1_ave_T              =   1.3112865909668E+01
(PID.TID 0000.0001) %MON land_Tgr1_ave_N              =  -1.8279470956250E+01
(PID.TID 0000.0001) %MON land_Tgr1_min_S              =  -3.9101873991778E+01
(PID.TID 0000.0001) %MON land_Tgr1_min_T              =  -5.8126857573351E+00
(PID.TID 0000.0001) %MON land_Tgr1_min_N              =  -5.4870811211025E+01
(PID.TID 0000.0001) %MON land_Tgr1_max_S              =   2.3998300648067E+01
(PID.TID 0000.0001) %MON land_Tgr1_max_T              =   2.5788481891360E+01
(PID.TID 0000.0001) %MON land_Tgr1_max_N              =   1.1320016085830E+01
(PID.TID 0000.0001) %MON land_Tgr2_ave_G              =   4.2062414225692E+00
(PID.TID 0000.0001) %MON land_Tgr2_ave_S              =  -1.8729639394825E+01
(PID.TID 0000.0001) %MON land_Tgr2_ave_T              =   2.2012049285393E+01
(PID.TID 0000.0001) %MON land_Tgr2_ave_N              =  -2.4369342173558E-01
(PID.TID 0000.0001) %MON land_Tgr2_min_S              =  -6.4757959697597E+01
(PID.TID 0000.0001) %MON land_Tgr2_min_T              =  -9.7047331978513E+00
(PID.TID 0000.0001) %MON land_Tgr2_min_N              =  -4.0196021970150E+01
(PID.TID 0000.0001) %MON land_Tgr2_max_S              =   2.3360642489967E+01
(PID.TID 0000.0001) %MON land_Tgr2_max_T              =   3.1357831898776E+01
(PID.TID 0000.0001) %MON land_Tgr2_max_N              =   2.9828917639633E+01
(PID.TID 0000.0001) %MON land_TotEnerg_G              =  -6.3129656759285E+21
(PID.TID 0000.0001) %MON land_TotEnerg_S              =  -4.9989244544159E+21
(PID.TID 0000.0001) %MON land_TotEnerg_T              =   7.3022898599339E+21
(PID.TID 0000.0001) %MON land_TotEnerg_N              =  -8.6163310814465E+21
(PID.TID 0000.0001) %MON land_grdW_ave_G              =   4.8689786201720E-01
(PID.TID 0000.0001) %MON land_grdW_ave_S              =   3.0865414081388E-01
(PID.TID 0000.0001) %MON land_grdW_ave_T              =   5.6452944791678E-01
(PID.TID 0000.0001) %MON land_grdW_ave_N              =   4.9287894916159E-01
(PID.TID 0000.0001) %MON land_grdW_min_S              =   2.6290442326096E-02
(PID.TID 0000.0001) %MON land_grdW_min_T              =   0.0000000000000E+00
(PID.TID 0000.0001) %MON land_grdW_min_N              =   0.0000000000000E+00
(PID.TID 0000.0001) // =======================================================
(PID.TID 0000.0001) // End MONITOR Land statistics
(PID.TID 0000.0001) // =======================================================
(PID.TID 0000.0001) // =======================================================
(PID.TID 0000.0001) // Begin MONITOR Therm.SeaIce statistics
(PID.TID 0000.0001) // =======================================================
(PID.TID 0000.0001) %MON thSI_time_sec                =   4.5000000000000E+03
(PID.TID 0000.0001) %MON thSI_Ice_Area_G              =   1.3898611545297E+12
(PID.TID 0000.0001) %MON thSI_Ice_Area_S              =   6.7319212403434E+10
(PID.TID 0000.0001) %MON thSI_Ice_Area_N              =   1.3225419421263E+12
(PID.TID 0000.0001) %MON thSI_IceH_ave_G              =   1.0254825898499E-01
(PID.TID 0000.0001) %MON thSI_IceH_ave_S              =   9.9975085841300E-02
(PID.TID 0000.0001) %MON thSI_IceH_ave_N              =   1.0267923705374E-01
(PID.TID 0000.0001) %MON thSI_IceH_max_S              =   9.9975637971550E-02
(PID.TID 0000.0001) %MON thSI_IceH_max_N              =   1.0277341961239E-01
(PID.TID 0000.0001) %MON thSI_SnwH_ave_G              =   0.0000000000000E+00
(PID.TID 0000.0001) %MON thSI_SnwH_ave_S              =   0.0000000000000E+00
(PID.TID 0000.0001) %MON thSI_SnwH_ave_N              =   0.0000000000000E+00
(PID.TID 0000.0001) %MON thSI_SnwH_max_S              =   0.0000000000000E+00
(PID.TID 0000.0001) %MON thSI_SnwH_max_N              =   0.0000000000000E+00
(PID.TID 0000.0001) %MON thSI_Tsrf_ave_G              =  -6.5144071417081E+00
(PID.TID 0000.0001) %MON thSI_Tsrf_ave_S              =  -1.3506069488436E+00
(PID.TID 0000.0001) %MON thSI_Tsrf_ave_N              =  -6.7772517071012E+00
(PID.TID 0000.0001) %MON thSI_Tsrf_min_S              =  -1.4036210681695E+00
(PID.TID 0000.0001) %MON thSI_Tsrf_min_N              =  -6.9489126939477E+00
(PID.TID 0000.0001) %MON thSI_Tsrf_max_S              =  -1.2961196347408E+00
(PID.TID 0000.0001) %MON thSI_Tsrf_max_N              =  -5.9319109344776E+00
(PID.TID 0000.0001) %MON thSI_Tic1_ave_G              =  -4.5490371310111E+00
(PID.TID 0000.0001) %MON thSI_Tic1_ave_S              =  -1.5992798520779E+00
(PID.TID 0000.0001) %MON thSI_Tic1_ave_N              =  -4.6952296019746E+00
(PID.TID 0000.0001) %MON thSI_Tic1_min_S              =  -1.6222669362953E+00
(PID.TID 0000.0001) %MON thSI_Tic1_min_N              =  -4.7980240020507E+00
(PID.TID 0000.0001) %MON thSI_Tic1_max_S              =  -1.5773354392999E+00
(PID.TID 0000.0001) %MON thSI_Tic1_max_N              =  -4.1591149157953E+00
(PID.TID 0000.0001) %MON thSI_Tic2_ave_G              =  -2.6043724123655E+00
(PID.TID 0000.0001) %MON thSI_Tic2_ave_S              =  -1.8100957764419E+00
(PID.TID 0000.0001) %MON thSI_Tic2_ave_N              =  -2.6437374356721E+00
(PID.TID 0000.0001) %MON thSI_Tic2_min_S              =  -1.8165578061354E+00
(PID.TID 0000.0001) %MON thSI_Tic2_min_N              =  -2.6709286606099E+00
(PID.TID 0000.0001) %MON thSI_Tic2_max_S              =  -1.8040103903065E+00
(PID.TID 0000.0001) %MON thSI_Tic2_max_N              =  -2.5022276129744E+00
(PID.TID 0000.0001) %MON thSI_TotEnerg_G              =  -4.3546869307531E+19
(PID.TID 0000.0001) // =======================================================
(PID.TID 0000.0001) // End MONITOR Therm.SeaIce statistics
(PID.TID 0000.0001) // =======================================================
 Computing Diagnostic #     23  ETAN         Counter:      10   Parms: SM      M1      
 Computing Diagnostic #     24  ETANSQ       Counter:      10   Parms: SM P    M1      
 Computing Diagnostic #     25  DETADT2      Counter:      10   Parms: SM      M1      
 Computing Diagnostic #     29  UVEL         Counter:      10   Parms: UUR     MR      
           Vector  Mate for  UVEL         Diagnostic #     30  VVEL     exists 
 Computing Diagnostic #     30  VVEL         Counter:      10   Parms: VVR     MR      
           Vector  Mate for  VVEL         Diagnostic #     29  UVEL     exists 
 Computing Diagnostic #     31  WVEL         Counter:      10   Parms: WM      LR      
 Computing Diagnostic #     26  THETA        Counter:      10   Parms: SMR     MR      
 Computing Diagnostic #     27  SALT         Counter:      10   Parms: SMR     MR      
 Computing Diagnostic #     34  UVELSQ       Counter:      10   Parms: UURP    MR      
           Vector  Mate for  UVELSQ       Diagnostic #     35  VVELSQ   exists 
 Computing Diagnostic #     35  VVELSQ       Counter:      10   Parms: VVRP    MR      
           Vector  Mate for  VVELSQ       Diagnostic #     34  UVELSQ   exists 
 Computing Diagnostic #     36  WVELSQ       Counter:      10   Parms: WM P    LR      
 Computing Diagnostic #     32  THETASQ      Counter:      10   Parms: SMRP    MR      
 Computing Diagnostic #     40  UV_VEL_Z     Counter:      10   Parms: UZR     MR      
           Vector  Mate for  UV_VEL_Z     Diagnostic #     40  UV_VEL_Z exists 
 Computing Diagnostic #     69  PHIHYD       Counter:      10   Parms: SMR     MR      
 Computing Diagnostic #     70  PHIHYDSQ     Counter:      10   Parms: SMRP    MR      
 Computing Diagnostic #     43  UVELMASS     Counter:      10   Parms: UUr     MR      
           Vector  Mate for  UVELMASS     Diagnostic #     44  VVELMASS exists 
 Computing Diagnostic #     44  VVELMASS     Counter:      10   Parms: VVr     MR      
           Vector  Mate for  VVELMASS     Diagnostic #     43  UVELMASS exists 
 Computing Diagnostic #     48  UTHMASS      Counter:      10   Parms: UUr     MR      
           Vector  Mate for  UTHMASS      Diagnostic #     49  VTHMASS  exists 
 Computing Diagnostic #     49  VTHMASS      Counter:      10   Parms: VVr     MR      
           Vector  Mate for  VTHMASS      Diagnostic #     48  UTHMASS  exists 
 Computing Diagnostic #     56  WVELTH       Counter:      10   Parms: WM      LR      
 Computing Diagnostic #     51  USLTMASS     Counter:      10   Parms: UUr     MR      
           Vector  Mate for  USLTMASS     Diagnostic #     52  VSLTMASS exists 
 Computing Diagnostic #     52  VSLTMASS     Counter:      10   Parms: VVr     MR      
           Vector  Mate for  VSLTMASS     Diagnostic #     51  USLTMASS exists 
 Computing Diagnostic #     59  WVELSLT      Counter:      10   Parms: WM      LR      
 Computing Diagnostic #    256  UFLUX        Counter:      10   Parms: UU      L1      
           Vector  Mate for  UFLUX        Diagnostic #    257  VFLUX    exists 
 Computing Diagnostic #    257  VFLUX        Counter:      10   Parms: VV      L1      
           Vector  Mate for  VFLUX        Diagnostic #    256  UFLUX    exists 
 Computing Diagnostic #    230  TSR          Counter:      10   Parms: SM P    U1      
 Computing Diagnostic #    231  OLR          Counter:      10   Parms: SM P    U1      
 Computing Diagnostic #    232  RADSWG       Counter:      10   Parms: SM P    L1      
 Computing Diagnostic #    233  RADLWG       Counter:      10   Parms: SM      L1      
 Computing Diagnostic #    234  HFLUX        Counter:      10   Parms: SM      L1      
 Computing Diagnostic #    235  EVAP         Counter:      10   Parms: SM      L1      
 Computing Diagnostic #    236  PRECON       Counter:      10   Parms: SM P    L1      
 Computing Diagnostic #    237  PRECLS       Counter:      10   Parms: SM      M1      
 Computing Diagnostic #    238  CLDFRC       Counter:      10   Parms: SM P    M1      
 Computing Diagnostic #    239  CLDPRS       Counter:      10   Parms: SM PC   M1      
       use Counter Mate for  CLDPRS       Diagnostic #    238  CLDFRC  
 Computing Diagnostic #    240  CLDMAS       Counter:      10   Parms: SM P    L1      
 Computing Diagnostic #    241  DRAG         Counter:      10   Parms: SM P    L1      
 Computing Diagnostic #    242  WINDS        Counter:      10   Parms: SM P    L1      
 Computing Diagnostic #    243  TS           Counter:      10   Parms: SM      L1      
 Computing Diagnostic #    244  QS           Counter:      10   Parms: SM P    L1      
 Computing Diagnostic #    245  ENPREC       Counter:      10   Parms: SM      M1      
 Computing Diagnostic #    246  ALBVISDF     Counter:      10   Parms: SM P    L1      
 Computing Diagnostic #    260  DTSIMPL      Counter:      10   Parms: SM P    L1      
 Computing Diagnostic #     28  RELHUM       Counter:      10   Parms: SMR     MR      
 Computing Diagnostic #    220  DIABT        Counter:      10   Parms: SMr     MR      
 Computing Diagnostic #    221  DIABQ        Counter:      10   Parms: SMr     MR      
 Computing Diagnostic #    222  RADSW        Counter:      10   Parms: SM      ML      
 Computing Diagnostic #    223  RADLW        Counter:      10   Parms: SM      ML      
 Computing Diagnostic #    224  DTCONV       Counter:      10   Parms: SM      ML      
 Computing Diagnostic #    226  DTLS         Counter:      10   Parms: SM      ML      
 Computing Diagnostic #    227  DQCONV       Counter:      10   Parms: SM      MR      
 Computing Diagnostic #    229  DQLS         Counter:      10   Parms: SM      ML      
 Computing Diagnostic #    176  SI_Fract     Counter:      10   Parms: SM P    M1      
 Computing Diagnostic #    177  SI_Thick     Counter:      10   Parms: SM PC   M1      
       use Counter Mate for  SI_Thick     Diagnostic #    176  SI_Fract
 Computing Diagnostic #    178  SI_SnowH     Counter:      10   Parms: SM PC   M1      
       use Counter Mate for  SI_SnowH     Diagnostic #    176  SI_Fract
 Computing Diagnostic #    179  SI_Tsrf      Counter:      10   Parms: SM  C   M1      
       use Counter Mate for  SI_Tsrf      Diagnostic #    176  SI_Fract
 Computing Diagnostic #    180  SI_Tice1     Counter:      10   Parms: SM  C   M1      
       use Counter Mate for  SI_Tice1     Diagnostic #    176  SI_Fract
 Computing Diagnostic #    181  SI_Tice2     Counter:      10   Parms: SM  C   M1      
       use Counter Mate for  SI_Tice2     Diagnostic #    176  SI_Fract
 Computing Diagnostic #    182  SI_Qice1     Counter:      10   Parms: SM  C   M1      
       use Counter Mate for  SI_Qice1     Diagnostic #    177  SI_Thick
 Computing Diagnostic #    183  SI_Qice2     Counter:      10   Parms: SM  C   M1      
       use Counter Mate for  SI_Qice2     Diagnostic #    177  SI_Thick
 Computing Diagnostic #    184  SIsnwAge     Counter:      10   Parms: SM P    M1      
 Computing Diagnostic #    186  SIsnwPrc     Counter:      10   Parms: SM  C   M1      
       use Counter Mate for  SIsnwPrc     Diagnostic #    176  SI_Fract
 Computing Diagnostic #    185  SIalbedo     Counter:      10   Parms: SM PC   M1      
       use Counter Mate for  SIalbedo     Diagnostic #    176  SI_Fract
 Computing Diagnostic #    189  SIflx2oc     Counter:      10   Parms: SM      M1      
 Computing Diagnostic #    190  SIfrw2oc     Counter:      10   Parms: SM      M1      
 Computing Diagnostic #    191  SIsaltFx     Counter:      10   Parms: SM      M1      
(PID.TID 0000.0001) DIAGSTATS_CLOSE_IO: close file: dynStDiag.0000000000.txt , unit=     9
(PID.TID 0000.0001) DIAGSTATS_CLOSE_IO: close file: landStDiag.0000000000.txt , unit=    10
(PID.TID 0000.0001) DIAGSTATS_CLOSE_IO: close file: thSIceStDiag.0000000000.txt , unit=    16
(PID.TID 0000.0001) %CHECKPOINT        10 ckptA
(PID.TID 0000.0001)   Seconds in section "ALL                    [THE_MODEL_MAIN]":
(PID.TID 0000.0001)           User time:   7.2500000000000000
(PID.TID 0000.0001)         System time:  5.00000000000000028E-002
(PID.TID 0000.0001)     Wall clock time:   7.3850231170654297
(PID.TID 0000.0001)          No. starts:           1
(PID.TID 0000.0001)           No. stops:           1
(PID.TID 0000.0001)   Seconds in section "INITIALISE_FIXED       [THE_MODEL_MAIN]":
(PID.TID 0000.0001)           User time:  0.20999999999999999
(PID.TID 0000.0001)         System time:  1.00000000000000002E-002
(PID.TID 0000.0001)     Wall clock time:  0.25264787673950195
(PID.TID 0000.0001)          No. starts:           1
(PID.TID 0000.0001)           No. stops:           1
(PID.TID 0000.0001)   Seconds in section "THE_MAIN_LOOP          [THE_MODEL_MAIN]":
(PID.TID 0000.0001)           User time:   7.0400000000000000
(PID.TID 0000.0001)         System time:  4.00000000000000008E-002
(PID.TID 0000.0001)     Wall clock time:   7.1323339939117432
(PID.TID 0000.0001)          No. starts:           1
(PID.TID 0000.0001)           No. stops:           1
(PID.TID 0000.0001)   Seconds in section "INITIALISE_VARIA    [THE_MAIN_LOOP]":
(PID.TID 0000.0001)           User time:  0.24000000000000002
(PID.TID 0000.0001)         System time:  1.99999999999999969E-002
(PID.TID 0000.0001)     Wall clock time:  0.27351617813110352
(PID.TID 0000.0001)          No. starts:           1
(PID.TID 0000.0001)           No. stops:           1
(PID.TID 0000.0001)   Seconds in section "MAIN LOOP           [THE_MAIN_LOOP]":
(PID.TID 0000.0001)           User time:   6.7999999999999998
(PID.TID 0000.0001)         System time:  2.00000000000000039E-002
(PID.TID 0000.0001)     Wall clock time:   6.8587858676910400
(PID.TID 0000.0001)          No. starts:           1
(PID.TID 0000.0001)           No. stops:           1
(PID.TID 0000.0001)   Seconds in section "MAIN_DO_LOOP        [THE_MAIN_LOOP]":
(PID.TID 0000.0001)           User time:   6.8000000000000007
(PID.TID 0000.0001)         System time:  2.00000000000000039E-002
(PID.TID 0000.0001)     Wall clock time:   6.8586864471435547
(PID.TID 0000.0001)          No. starts:          10
(PID.TID 0000.0001)           No. stops:          10
(PID.TID 0000.0001)   Seconds in section "FORWARD_STEP        [MAIN_DO_LOOP]":
(PID.TID 0000.0001)           User time:   6.8000000000000007
(PID.TID 0000.0001)         System time:  2.00000000000000039E-002
(PID.TID 0000.0001)     Wall clock time:   6.8585009574890137
(PID.TID 0000.0001)          No. starts:          10
(PID.TID 0000.0001)           No. stops:          10
(PID.TID 0000.0001)   Seconds in section "DO_STATEVARS_DIAGS  [FORWARD_STEP]":
(PID.TID 0000.0001)           User time:  0.32999999999999829
(PID.TID 0000.0001)         System time:   0.0000000000000000
(PID.TID 0000.0001)     Wall clock time:  0.34980869293212891
(PID.TID 0000.0001)          No. starts:          30
(PID.TID 0000.0001)           No. stops:          30
(PID.TID 0000.0001)   Seconds in section "LOAD_FIELDS_DRIVER  [FORWARD_STEP]":
(PID.TID 0000.0001)           User time:  1.99999999999995737E-002
(PID.TID 0000.0001)         System time:   0.0000000000000000
(PID.TID 0000.0001)     Wall clock time:  4.86199855804443359E-002
(PID.TID 0000.0001)          No. starts:          10
(PID.TID 0000.0001)           No. stops:          10
(PID.TID 0000.0001)   Seconds in section "EXTERNAL_FLDS_LOAD [LOAD_FLDS_DRIVER]":
(PID.TID 0000.0001)           User time:   0.0000000000000000
(PID.TID 0000.0001)         System time:   0.0000000000000000
(PID.TID 0000.0001)     Wall clock time:  1.02281570434570313E-004
(PID.TID 0000.0001)          No. starts:          10
(PID.TID 0000.0001)           No. stops:          10
(PID.TID 0000.0001)   Seconds in section "DO_ATMOSPHERIC_PHYS [FORWARD_STEP]":
(PID.TID 0000.0001)           User time:   1.0600000000000005
(PID.TID 0000.0001)         System time:  1.00000000000000019E-002
(PID.TID 0000.0001)     Wall clock time:   1.0641150474548340
(PID.TID 0000.0001)          No. starts:          10
(PID.TID 0000.0001)           No. stops:          10
(PID.TID 0000.0001)   Seconds in section "AIM_DO_PHYSICS [DO_ATMOSPHERIC_PHYS]":
(PID.TID 0000.0001)           User time:   1.0600000000000005
(PID.TID 0000.0001)         System time:  1.00000000000000019E-002
(PID.TID 0000.0001)     Wall clock time:   1.0638923645019531
(PID.TID 0000.0001)          No. starts:          10
(PID.TID 0000.0001)           No. stops:          10
(PID.TID 0000.0001)   Seconds in section "DO_OCEANIC_PHYS     [FORWARD_STEP]":
(PID.TID 0000.0001)           User time:   0.0000000000000000
(PID.TID 0000.0001)         System time:   0.0000000000000000
(PID.TID 0000.0001)     Wall clock time:  7.81536102294921875E-004
(PID.TID 0000.0001)          No. starts:          10
(PID.TID 0000.0001)           No. stops:          10
(PID.TID 0000.0001)   Seconds in section "DYNAMICS            [FORWARD_STEP]":
(PID.TID 0000.0001)           User time:   1.2999999999999998
(PID.TID 0000.0001)         System time:   0.0000000000000000
(PID.TID 0000.0001)     Wall clock time:   1.3074429035186768
(PID.TID 0000.0001)          No. starts:          10
(PID.TID 0000.0001)           No. stops:          10
(PID.TID 0000.0001)   Seconds in section "UPDATE_R_STAR       [FORWARD_STEP]":
(PID.TID 0000.0001)           User time:  6.99999999999993960E-002
(PID.TID 0000.0001)         System time:   0.0000000000000000
(PID.TID 0000.0001)     Wall clock time:  7.81202316284179688E-002
(PID.TID 0000.0001)          No. starts:          10
(PID.TID 0000.0001)           No. stops:          10
(PID.TID 0000.0001)   Seconds in section "UPDATE_CG2D         [FORWARD_STEP]":
(PID.TID 0000.0001)           User time:  7.00000000000002842E-002
(PID.TID 0000.0001)         System time:   0.0000000000000000
(PID.TID 0000.0001)     Wall clock time:  5.11622428894042969E-002
(PID.TID 0000.0001)          No. starts:          10
(PID.TID 0000.0001)           No. stops:          10
(PID.TID 0000.0001)   Seconds in section "SOLVE_FOR_PRESSURE  [FORWARD_STEP]":
(PID.TID 0000.0001)           User time:  0.47000000000000064
(PID.TID 0000.0001)         System time:   0.0000000000000000
(PID.TID 0000.0001)     Wall clock time:  0.48181176185607910
(PID.TID 0000.0001)          No. starts:          10
(PID.TID 0000.0001)           No. stops:          10
(PID.TID 0000.0001)   Seconds in section "MOM_CORRECTION_STEP [FORWARD_STEP]":
(PID.TID 0000.0001)           User time:  0.49000000000000021
(PID.TID 0000.0001)         System time:   0.0000000000000000
(PID.TID 0000.0001)     Wall clock time:  0.48569631576538086
(PID.TID 0000.0001)          No. starts:          10
(PID.TID 0000.0001)           No. stops:          10
(PID.TID 0000.0001)   Seconds in section "SHAP_FILT_UV       [MOM_CORR_STEP]":
(PID.TID 0000.0001)           User time:  0.46000000000000085
(PID.TID 0000.0001)         System time:   0.0000000000000000
(PID.TID 0000.0001)     Wall clock time:  0.44351959228515625
(PID.TID 0000.0001)          No. starts:          10
(PID.TID 0000.0001)           No. stops:          10
(PID.TID 0000.0001)   Seconds in section "INTEGR_CONTINUITY   [FORWARD_STEP]":
(PID.TID 0000.0001)           User time:  0.11000000000000032
(PID.TID 0000.0001)         System time:   0.0000000000000000
(PID.TID 0000.0001)     Wall clock time:  0.12883687019348145
(PID.TID 0000.0001)          No. starts:          10
(PID.TID 0000.0001)           No. stops:          10
(PID.TID 0000.0001)   Seconds in section "CALC_R_STAR         [FORWARD_STEP]":
(PID.TID 0000.0001)           User time:  6.99999999999993960E-002
(PID.TID 0000.0001)         System time:   0.0000000000000000
(PID.TID 0000.0001)     Wall clock time:  5.39448261260986328E-002
(PID.TID 0000.0001)          No. starts:          10
(PID.TID 0000.0001)           No. stops:          10
(PID.TID 0000.0001)   Seconds in section "BLOCKING_EXCHANGES  [FORWARD_STEP]":
(PID.TID 0000.0001)           User time:  5.99999999999996092E-002
(PID.TID 0000.0001)         System time:   0.0000000000000000
(PID.TID 0000.0001)     Wall clock time:  3.62279415130615234E-002
(PID.TID 0000.0001)          No. starts:          20
(PID.TID 0000.0001)           No. stops:          20
(PID.TID 0000.0001)   Seconds in section "THERMODYNAMICS      [FORWARD_STEP]":
(PID.TID 0000.0001)           User time:  0.89999999999999947
(PID.TID 0000.0001)         System time:   0.0000000000000000
(PID.TID 0000.0001)     Wall clock time:  0.89065217971801758
(PID.TID 0000.0001)          No. starts:          10
(PID.TID 0000.0001)           No. stops:          10
(PID.TID 0000.0001)   Seconds in section "TRC_CORRECTION_STEP [FORWARD_STEP]":
(PID.TID 0000.0001)           User time:  0.50000000000000000
(PID.TID 0000.0001)         System time:   0.0000000000000000
(PID.TID 0000.0001)     Wall clock time:  0.50882196426391602
(PID.TID 0000.0001)          No. starts:          10
(PID.TID 0000.0001)           No. stops:          10
(PID.TID 0000.0001)   Seconds in section "SHAP_FILT_TS       [TRC_CORR_STEP]":
(PID.TID 0000.0001)           User time:  0.47999999999999954
(PID.TID 0000.0001)         System time:   0.0000000000000000
(PID.TID 0000.0001)     Wall clock time:  0.49072813987731934
(PID.TID 0000.0001)          No. starts:          10
(PID.TID 0000.0001)           No. stops:          10
(PID.TID 0000.0001)   Seconds in section "DO_STATEVARS_TAVE   [FORWARD_STEP]":
(PID.TID 0000.0001)           User time:  0.31000000000000050
(PID.TID 0000.0001)         System time:   0.0000000000000000
(PID.TID 0000.0001)     Wall clock time:  0.33634519577026367
(PID.TID 0000.0001)          No. starts:          10
(PID.TID 0000.0001)           No. stops:          10
(PID.TID 0000.0001)   Seconds in section "MONITOR             [FORWARD_STEP]":
(PID.TID 0000.0001)           User time:  0.72999999999999954
(PID.TID 0000.0001)         System time:   0.0000000000000000
(PID.TID 0000.0001)     Wall clock time:  0.73466610908508301
(PID.TID 0000.0001)          No. starts:          10
(PID.TID 0000.0001)           No. stops:          10
(PID.TID 0000.0001)   Seconds in section "DO_THE_MODEL_IO     [FORWARD_STEP]":
(PID.TID 0000.0001)           User time:  0.28000000000000114
(PID.TID 0000.0001)         System time:  1.00000000000000019E-002
(PID.TID 0000.0001)     Wall clock time:  0.26334691047668457
(PID.TID 0000.0001)          No. starts:          10
(PID.TID 0000.0001)           No. stops:          10
(PID.TID 0000.0001)   Seconds in section "DO_WRITE_PICKUP     [FORWARD_STEP]":
(PID.TID 0000.0001)           User time:  3.00000000000002487E-002
(PID.TID 0000.0001)         System time:   0.0000000000000000
(PID.TID 0000.0001)     Wall clock time:  3.58138084411621094E-002
(PID.TID 0000.0001)          No. starts:          10
(PID.TID 0000.0001)           No. stops:          10
(PID.TID 0000.0001) // ======================================================
(PID.TID 0000.0001) // Tile <-> Tile communication statistics
(PID.TID 0000.0001) // ======================================================
(PID.TID 0000.0001) // o Tile number: 000001
(PID.TID 0000.0001) //         No. X exchanges =              0
(PID.TID 0000.0001) //            Max. X spins =              0
(PID.TID 0000.0001) //            Min. X spins =     1000000000
(PID.TID 0000.0001) //          Total. X spins =              0
(PID.TID 0000.0001) //            Avg. X spins =       0.00E+00
(PID.TID 0000.0001) //         No. Y exchanges =              0
(PID.TID 0000.0001) //            Max. Y spins =              0
(PID.TID 0000.0001) //            Min. Y spins =     1000000000
(PID.TID 0000.0001) //          Total. Y spins =              0
(PID.TID 0000.0001) //            Avg. Y spins =       0.00E+00
(PID.TID 0000.0001) // o Tile number: 000002
(PID.TID 0000.0001) //         No. X exchanges =              0
(PID.TID 0000.0001) //            Max. X spins =              0
(PID.TID 0000.0001) //            Min. X spins =     1000000000
(PID.TID 0000.0001) //          Total. X spins =              0
(PID.TID 0000.0001) //            Avg. X spins =       0.00E+00
(PID.TID 0000.0001) //         No. Y exchanges =              0
(PID.TID 0000.0001) //            Max. Y spins =              0
(PID.TID 0000.0001) //            Min. Y spins =     1000000000
(PID.TID 0000.0001) //          Total. Y spins =              0
(PID.TID 0000.0001) //            Avg. Y spins =       0.00E+00
(PID.TID 0000.0001) // o Tile number: 000003
(PID.TID 0000.0001) //         No. X exchanges =              0
(PID.TID 0000.0001) //            Max. X spins =              0
(PID.TID 0000.0001) //            Min. X spins =     1000000000
(PID.TID 0000.0001) //          Total. X spins =              0
(PID.TID 0000.0001) //            Avg. X spins =       0.00E+00
(PID.TID 0000.0001) //         No. Y exchanges =              0
(PID.TID 0000.0001) //            Max. Y spins =              0
(PID.TID 0000.0001) //            Min. Y spins =     1000000000
(PID.TID 0000.0001) //          Total. Y spins =              0
(PID.TID 0000.0001) //            Avg. Y spins =       0.00E+00
(PID.TID 0000.0001) // o Tile number: 000004
(PID.TID 0000.0001) //         No. X exchanges =              0
(PID.TID 0000.0001) //            Max. X spins =              0
(PID.TID 0000.0001) //            Min. X spins =     1000000000
(PID.TID 0000.0001) //          Total. X spins =              0
(PID.TID 0000.0001) //            Avg. X spins =       0.00E+00
(PID.TID 0000.0001) //         No. Y exchanges =              0
(PID.TID 0000.0001) //            Max. Y spins =              0
(PID.TID 0000.0001) //            Min. Y spins =     1000000000
(PID.TID 0000.0001) //          Total. Y spins =              0
(PID.TID 0000.0001) //            Avg. Y spins =       0.00E+00
(PID.TID 0000.0001) // o Tile number: 000005
(PID.TID 0000.0001) //         No. X exchanges =              0
(PID.TID 0000.0001) //            Max. X spins =              0
(PID.TID 0000.0001) //            Min. X spins =     1000000000
(PID.TID 0000.0001) //          Total. X spins =              0
(PID.TID 0000.0001) //            Avg. X spins =       0.00E+00
(PID.TID 0000.0001) //         No. Y exchanges =              0
(PID.TID 0000.0001) //            Max. Y spins =              0
(PID.TID 0000.0001) //            Min. Y spins =     1000000000
(PID.TID 0000.0001) //          Total. Y spins =              0
(PID.TID 0000.0001) //            Avg. Y spins =       0.00E+00
(PID.TID 0000.0001) // o Tile number: 000006
(PID.TID 0000.0001) //         No. X exchanges =              0
(PID.TID 0000.0001) //            Max. X spins =              0
(PID.TID 0000.0001) //            Min. X spins =     1000000000
(PID.TID 0000.0001) //          Total. X spins =              0
(PID.TID 0000.0001) //            Avg. X spins =       0.00E+00
(PID.TID 0000.0001) //         No. Y exchanges =              0
(PID.TID 0000.0001) //            Max. Y spins =              0
(PID.TID 0000.0001) //            Min. Y spins =     1000000000
(PID.TID 0000.0001) //          Total. Y spins =              0
(PID.TID 0000.0001) //            Avg. Y spins =       0.00E+00
(PID.TID 0000.0001) // o Thread number: 000001
(PID.TID 0000.0001) //            No. barriers =          10244
(PID.TID 0000.0001) //      Max. barrier spins =              1
(PID.TID 0000.0001) //      Min. barrier spins =              1
(PID.TID 0000.0001) //     Total barrier spins =          10244
(PID.TID 0000.0001) //      Avg. barrier spins =       1.00E+00
PROGRAM MAIN: Execution ended Normally
